data/inputs/nesta_case6468_rte.m
%%%%%%%%%%%%%%%%%%%%%%%%%%%%%%%%%%%%%%%%%%%%%%%%%%%%%%%%%%%%%%%%%%%%%%%%%%%
%%%%                                                                  %%%%%
%%%%      NICTA Energy System Test Case Archive (NESTA) - v0.7.0      %%%%%
%%%%              Optimal Power Flow - Typical Operation              %%%%%
%%%%                         05 - June - 2017                         %%%%%
%%%%                                                                  %%%%%
%%%%%%%%%%%%%%%%%%%%%%%%%%%%%%%%%%%%%%%%%%%%%%%%%%%%%%%%%%%%%%%%%%%%%%%%%%%
%
%CASE6468RTE
%   AC Power flow data for French system.
%   Please see CASEFORMAT for details on the case file format.
%
%   This case accurately represents the size and complexity of French
%   very high voltage and high voltage transmission network.
%   These data are snapshots of French VHV+HV grid in 2013.
%   These data can be used to validate mathematical methods and tools.
%   These data should NOT be used for operation
%   nor planning of the French or European grids.
%
%   When publishing results using this data, please cite:
%     C. Josz, S. Fliscounakis, J. Maeght, and P. Panciatici,
%     "AC Power Flow Data in MATPOWER and QCQP Format: iTesla, RTE Snapshots, and PEGASE"
%     http://arxiv.org/abs/1603.01533
%
%   Contacts (primary contact for this file : Jean Maeght):
%   Cédric Josz, Stéphane Fliscounakis, Jean Maeght, Patrick Panciatici
%   firstname.lastname@rte-france.com
%   Réseau de Transport d'Electricité (French Transmission System Operator)
%   Département Expertise Système, Immeuble "Le Colbert"
%   9 rue de la Porte de Buc, 78000 Versailles Cedex, France
%   March 4th, 2016
%
function mpc = nesta_case6468_rte
mpc.version = '2';
mpc.baseMVA = 100.0;

%% bus data
%	bus_i	type	Pd	Qd	Gs	Bs	area	Vm	Va	baseKV	zone	Vmax	Vmin
mpc.bus = [
	1	 1	 0.0	 0.0	 0.0	 0.0	 1	    0.97284	  -18.60649	 45.0	 1	    1.00000	    0.88889;
	2	 1	 0.0	 0.0	 0.0	 0.0	 1	    1.04625	  -11.66662	 63.0	 1	    1.06349	    0.93651;
	3	 1	 11.7	 -1.2	 0.0	 0.0	 1	    0.99678	  -15.31081	 63.0	 1	    1.07937	    0.95238;
	4	 1	 33.8	 -8.2	 0.0	 0.0	 1	    1.07563	  -10.44953	 90.0	 1	    1.08889	    0.93333;
	5	 1	 11.0	 -0.9	 0.0	 0.0	 1	    1.02320	  -25.21469	 63.0	 1	    1.06349	    0.95238;
	6	 1	 13.0	 4.3	 0.0	 0.0	 1	    1.02753	  -14.81571	 63.0	 1	    1.07937	    0.92063;
	7	 1	 1.0	 -0.2	 0.0	 0.0	 1	    1.06052	  -16.42034	 63.0	 1	    1.07937	    0.92063;
	8	 1	 0.4	 -4.4	 0.0	 0.0	 1	    1.07684	   -8.10392	 225.0	 1	    1.08889	    0.88889;
	9	 1	 16.9	 0.0	 0.0	 0.0	 1	    1.02398	  -24.44634	 63.0	 1	    1.06349	    0.93651;
	10	 1	 0.0	 0.0	 0.0	 0.0	 1	    1.07257	  -11.29183	 90.0	 1	    1.07778	    0.92222;
	11	 1	 20.0	 -3.1	 0.0	 0.0	 1	    1.07257	  -11.29183	 90.0	 1	    1.07778	    0.92222;
	12	 1	 0.0	 0.0	 0.0	 0.0	 1	    1.03121	   -6.01587	 63.0	 1	    1.07937	    0.95238;
	13	 1	 0.0	 0.0	 0.0	 0.0	 1	    1.07438	   -3.24675	 380.0	 1	    1.10263	    1.05084;
	14	 1	 37.0	 3.6	 0.0	 0.0	 1	    1.07139	  -10.35374	 90.0	 1	    1.07778	    0.97778;
	15	 1	 0.0	 0.0	 0.0	 0.0	 1	    1.02787	  -20.60679	 63.0	 1	    1.07937	    0.92063;
	16	 1	 10.3	 1.5	 0.0	 0.0	 1	    1.05598	  -22.19602	 63.0	 1	    1.07937	    0.92063;
	17	 1	 11.2	 -0.6	 0.0	 0.0	 1	    1.04607	  -16.06786	 90.0	 1	    1.06667	    0.97778;
	18	 1	 0.0	 0.0	 0.0	 0.0	 1	    0.92462	  -11.46053	 45.0	 1	    1.00000	    0.88889;
	19	 1	 1.0	 0.0	 0.0	 0.0	 1	    1.03331	  -15.62266	 63.0	 1	    1.06349	    0.93651;
	20	 1	 2.3	 -18.3	 0.0	 0.0	 1	    0.92545	  -11.49158	 45.0	 1	    1.00000	    0.88889;
	21	 1	 6.5	 -1.9	 0.0	 0.0	 1	    1.04249	  -12.03867	 90.0	 1	    1.06667	    0.97778;
	22	 1	 15.2	 1.4	 0.0	 0.0	 1	    1.02456	   -9.76179	 63.0	 1	    1.07937	    0.95238;
	23	 1	 29.1	 4.6	 0.0	 0.0	 1	    1.00656	  -18.56861	 63.0	 1	    1.06349	    0.93651;
	24	 1	 9.7	 -2.8	 0.0	 0.0	 1	    1.07048	   -9.41325	 90.0	 1	    1.11111	    0.95556;
	25	 1	 46.5	 -6.1	 0.0	 0.0	 1	    1.09460	   -9.57343	 90.0	 1	    1.10000	    0.94444;
	26	 1	 20.5	 4.7	 0.0	 0.0	 1	    1.03447	   -9.38258	 90.0	 1	    1.06667	    0.97778;
	27	 1	 0.0	 0.0	 0.0	 0.0	 1	    1.07656	   -5.84345	 225.0	 1	    1.08444	    1.00444;
	28	 1	 0.4	 0.9	 0.0	 0.0	 1	    1.02882	  -17.35885	 63.0	 1	    1.07937	    0.95238;
	29	 1	 52.7	 1.8	 0.0	 0.0	 1	    1.03642	  -17.08985	 63.0	 1	    1.06349	    0.96825;
	30	 1	 29.8	 -1.9	 0.0	 0.0	 1	    1.07042	  -10.82700	 90.0	 1	    1.08889	    0.93333;
	31	 1	 0.0	 0.0	 0.0	 0.0	 1	    1.03156	  -15.69550	 63.0	 1	    1.06349	    0.93651;
	32	 1	 0.0	 0.0	 0.0	 0.0	 1	    1.02773	   -9.56295	 150.0	 1	    1.10667	    0.90000;
	33	 1	 0.0	 0.0	 0.0	 0.0	 1	    1.04080	  -12.42814	 225.0	 1	    1.08889	    0.93333;
	34	 1	 0.0	 0.0	 0.0	 0.0	 1	    1.03619	  -12.28198	 225.0	 1	    1.08889	    0.93333;
	35	 1	 0.0	 0.0	 0.0	 0.0	 1	    1.05529	   -9.58133	 380.0	 1	    1.10526	    1.03947;
	36	 1	 0.0	 0.0	 0.0	 0.0	 1	    1.05161	   -8.17956	 380.0	 1	    1.10526	    1.03947;
	37	 1	 2.3	 4.4	 0.0	 0.0	 1	    1.01219	  -16.79981	 63.0	 1	    1.07937	    0.92063;
	38	 1	 7.0	 -1.0	 0.0	 0.0	 1	    1.06891	  -11.99874	 63.0	 1	    1.09524	    0.93651;
	39	 1	 35.0	 -6.8	 0.0	 0.0	 1	    1.03331	  -18.66691	 90.0	 1	    1.07778	    0.97778;
	40	 1	 31.7	 0.5	 0.0	 0.0	 1	    1.06572	   -8.86183	 90.0	 1	    1.07778	    0.97778;
	41	 1	 0.0	 0.0	 0.0	 0.0	 1	    1.08773	  -10.43505	 225.0	 1	    1.09194	    1.00444;
	42	 1	 0.0	 0.0	 0.0	 0.0	 1	    1.12957	   -2.00295	 63.0	 1	    1.13061	    0.95238;
	43	 1	 3.4	 2.8	 0.0	 0.0	 1	    1.05347	  -10.82851	 90.0	 1	    1.07778	    0.97778;
	44	 1	 12.4	 0.0	 0.0	 0.0	 1	    1.03186	  -26.03984	 63.0	 1	    1.06349	    0.95238;
	45	 1	 3.0	 2.1	 0.0	 0.0	 1	    1.03573	  -13.69319	 90.0	 1	    1.06667	    0.97778;
	46	 1	 0.0	 0.0	 0.0	 0.0	 1	    1.00927	  -16.99932	 63.0	 1	    1.06349	    0.93651;
	47	 2	 0.0	 0.0	 0.0	 0.0	 1	    1.00453	  -17.61820	 63.0	 1	    1.06349	    0.93651;
	48	 1	 34.0	 1.3	 0.0	 0.0	 1	    1.05719	  -10.77154	 90.0	 1	    1.07778	    0.92222;
	49	 1	 6.9	 -2.5	 0.0	 0.0	 1	    1.04008	  -12.86355	 63.0	 1	    1.06349	    0.93651;
	50	 1	 0.0	 0.0	 0.0	 0.0	 1	    1.05224	  -19.58514	 63.0	 1	    1.07436	    0.93651;
	51	 1	 0.0	 0.0	 0.0	 0.0	 1	    1.03843	  -15.20623	 225.0	 1	    1.08889	    0.93333;
	52	 1	 5.8	 2.5	 0.0	 0.0	 1	    1.04199	  -15.32074	 90.0	 1	    1.06667	    0.97778;
	53	 1	 0.2	 -0.3	 0.0	 0.0	 1	    1.02659	  -12.54667	 63.0	 1	    1.04762	    0.95238;
	54	 1	 0.9	 -0.8	 0.0	 0.0	 1	    1.05403	   -8.19978	 90.0	 1	    1.06667	    0.97778;
	55	 1	 30.1	 5.4	 0.0	 0.0	 1	    1.07484	  -12.40394	 225.0	 1	    1.08889	    1.00444;
	56	 1	 42.2	 6.3	 0.0	 0.0	 1	    1.05485	  -10.96795	 225.0	 1	    1.08889	    1.00444;
	57	 2	 0.0	 0.0	 0.0	 0.0	 1	    1.05129	  -17.31839	 63.0	 1	    1.07937	    0.92063;
	58	 1	 107.6	 28.8	 0.0	 0.0	 1	    1.07465	  -12.41534	 225.0	 1	    1.08889	    1.00444;
	59	 1	 5.2	 1.4	 0.0	 0.0	 1	    1.00534	  -13.41814	 63.0	 1	    1.07937	    0.95238;
	60	 1	 0.0	 0.0	 0.0	 0.0	 1	    1.05073	   -9.14274	 63.0	 1	    1.07937	    0.95238;
	61	 1	 29.6	 5.1	 0.0	 0.0	 1	    1.01736	  -10.06321	 63.0	 1	    1.07937	    0.95238;
	62	 1	 0.0	 0.0	 0.0	 0.0	 1	    1.04356	   -9.18682	 63.0	 1	    1.07937	    0.95238;
	63	 1	 12.8	 2.0	 0.0	 0.0	 1	    1.02439	   -5.67175	 63.0	 1	    1.07937	    0.95238;
	64	 1	 47.2	 -0.7	 0.0	 0.0	 1	    1.07710	   -5.69994	 225.0	 1	    1.08889	    0.88889;
	65	 1	 10.0	 2.9	 0.0	 0.0	 1	    1.02852	  -10.56649	 63.0	 1	    1.07937	    0.95238;
	66	 1	 11.1	 -9.3	 0.0	 0.0	 1	    1.05678	  -19.69021	 63.0	 1	    1.06349	    0.93651;
	67	 1	 0.0	 0.0	 0.0	 0.0	 1	    1.02734	   -8.52807	 63.0	 1	    1.07937	    0.92063;
	68	 1	 41.1	 -6.8	 0.0	 0.0	 1	    1.02517	  -14.92946	 63.0	 1	    1.06349	    0.93651;
	69	 1	 14.4	 -3.2	 0.0	 0.0	 1	    1.06349	  -26.24595	 63.0	 1	    1.06349	    0.95238;
	70	 1	 8.7	 0.6	 0.0	 0.0	 1	    1.04314	   -4.98145	 63.0	 1	    1.07937	    0.95238;
	71	 1	 55.8	 10.7	 0.0	 0.0	 1	    1.02660	  -12.25552	 63.0	 1	    1.04762	    0.95238;
	72	 1	 0.0	 0.0	 0.0	 0.0	 1	    1.07804	   -4.21927	 225.0	 1	    1.08889	    1.00444;
	73	 1	 0.0	 0.0	 0.0	 0.0	 1	    1.07804	   -4.21927	 225.0	 1	    1.08889	    1.00444;
	74	 1	 37.1	 -8.7	 0.0	 0.0	 1	    1.07753	   -5.65893	 225.0	 1	    1.08889	    0.88889;
	75	 1	 19.3	 1.4	 0.0	 0.0	 1	    1.06540	   -9.21426	 90.0	 1	    1.06825	    0.97778;
	76	 1	 6.3	 3.2	 0.0	 0.0	 1	    1.08571	   -2.94381	 225.0	 1	    1.08889	    0.98667;
	77	 1	 28.9	 -5.2	 0.0	 0.0	 1	    1.04478	  -14.05616	 63.0	 1	    1.06349	    0.93651;
	78	 1	 0.0	 0.0	 0.0	 0.0	 1	    1.05185	  -20.22578	 63.0	 1	    1.07937	    0.92063;
	79	 1	 0.0	 0.0	 0.0	 0.0	 1	    1.00974	  -10.02366	 63.0	 1	    1.04762	    0.95238;
	80	 1	 26.1	 -1.0	 0.0	 0.0	 1	    1.06547	  -10.35984	 225.0	 1	    1.08889	    1.00444;
	81	 1	 26.1	 3.5	 0.0	 0.0	 1	    1.06547	  -10.35950	 225.0	 1	    1.08889	    1.00444;
	82	 1	 9.8	 -3.2	 0.0	 0.0	 1	    1.03526	  -13.21705	 63.0	 1	    1.06349	    0.93651;
	83	 1	 85.0	 46.2	 0.0	 0.0	 1	    1.06871	  -11.09360	 225.0	 1	    1.08889	    1.00444;
	84	 1	 -1.0	 -1.1	 0.0	 0.0	 1	    1.05654	   -9.53748	 63.0	 1	    1.06349	    0.93651;
	85	 1	 2.3	 -0.8	 0.0	 0.0	 1	    1.05112	  -14.61352	 63.0	 1	    1.06349	    0.93651;
	86	 1	 30.3	 -3.7	 0.0	 0.0	 1	    1.03148	  -20.38021	 90.0	 1	    1.06667	    0.97778;
	87	 1	 0.0	 0.0	 0.0	 0.0	 1	    1.03620	   -5.37279	 63.0	 1	    1.07937	    0.95238;
	88	 1	 11.5	 -3.8	 0.0	 0.0	 1	    1.03773	  -15.37633	 63.0	 1	    1.06349	    0.93651;
	89	 1	 17.7	 -4.9	 0.0	 0.0	 1	    1.05870	  -12.88187	 90.0	 1	    1.07778	    0.97778;
	90	 1	 0.7	 -0.3	 0.0	 0.0	 1	    0.92426	  -12.51597	 45.0	 1	    1.00000	    0.88889;
	91	 1	 0.0	 0.0	 0.0	 0.0	 1	    0.92462	  -11.46053	 45.0	 1	    1.00000	    0.88889;
	92	 1	 24.7	 0.4	 0.0	 0.0	 1	    1.05105	  -15.09843	 63.0	 1	    1.06349	    0.96825;
	93	 1	 2.3	 -2.5	 0.0	 0.0	 1	    0.95660	  -15.24045	 45.0	 1	    1.00000	    0.88889;
	94	 1	 13.0	 -4.9	 0.0	 0.0	 1	    1.06403	   -9.43245	 90.0	 1	    1.06667	    0.97778;
	95	 1	 38.0	 3.8	 0.0	 0.0	 1	    1.04133	  -14.59565	 90.0	 1	    1.06667	    0.97778;
	96	 1	 0.9	 -0.6	 0.0	 0.0	 1	    1.02280	  -13.27687	 63.0	 1	    1.06349	    0.93651;
	97	 1	 47.0	 0.8	 0.0	 0.0	 1	    1.06307	  -18.68448	 63.0	 1	    1.07937	    0.92063;
	98	 1	 6.6	 -2.2	 0.0	 0.0	 1	    1.04090	  -12.30847	 63.0	 1	    1.07937	    0.95238;
	99	 1	 21.9	 3.2	 0.0	 0.0	 1	    1.02111	   -9.71679	 63.0	 1	    1.07937	    0.95238;
	100	 1	 46.3	 7.4	 0.0	 0.0	 1	    1.00709	  -19.85519	 63.0	 1	    1.06349	    0.93651;
	101	 1	 14.0	 -1.5	 0.0	 0.0	 1	    1.05281	  -11.37892	 63.0	 1	    1.06349	    0.93651;
	102	 2	 0.0	 0.0	 0.0	 0.0	 1	    1.03529	  -12.57668	 63.0	 1	    1.07937	    0.95238;
	103	 1	 13.2	 -4.0	 0.0	 0.0	 1	    1.03112	   -9.50719	 63.0	 1	    1.07937	    0.95238;
	104	 1	 0.0	 0.0	 0.0	 0.0	 1	    1.06532	   -7.07084	 225.0	 1	    1.08889	    0.98667;
	105	 1	 28.5	 -1.6	 0.0	 0.0	 1	    1.07603	   -7.53867	 225.0	 1	    1.08889	    0.88889;
	106	 1	 38.8	 2.2	 0.0	 0.0	 1	    1.08266	  -10.29195	 90.0	 1	    1.10000	    0.94444;
	107	 1	 71.6	 4.9	 0.0	 0.0	 1	    1.08444	  -20.33951	 225.0	 1	    1.08444	    1.00889;
	108	 1	 7.9	 -4.6	 0.0	 0.0	 1	    1.06143	   -7.64324	 90.0	 1	    1.07778	    0.97778;
	109	 1	 60.6	 7.8	 0.0	 0.0	 1	    1.05864	  -11.78929	 63.0	 1	    1.06349	    0.93651;
	110	 1	 0.0	 0.0	 0.0	 0.0	 1	    1.04294	   -9.78151	 225.0	 1	    1.08889	    0.93333;
	111	 1	 34.2	 -7.2	 0.0	 0.0	 1	    1.03034	  -16.97675	 63.0	 1	    1.06349	    0.96825;
	112	 1	 0.0	 0.0	 0.0	 0.0	 1	    1.03803	  -11.95686	 63.0	 1	    1.04762	    0.95238;
	113	 1	 0.0	 0.0	 0.0	 0.0	 1	    1.07613	   -9.63121	 225.0	 1	    1.08889	    1.00444;
	114	 1	 11.5	 -1.0	 0.0	 0.0	 1	    1.03787	  -19.31002	 63.0	 1	    1.06349	    0.93651;
	115	 1	 0.0	 0.0	 0.0	 0.0	 1	    1.07439	   -3.24683	 380.0	 1	    1.10526	    1.05085;
	116	 1	 0.0	 0.0	 0.0	 0.0	 1	    1.07439	   -3.24683	 380.0	 1	    1.10526	    1.05085;
	117	 1	 13.2	 -2.2	 0.0	 0.0	 1	    1.01792	  -17.89699	 63.0	 1	    1.07937	    0.95238;
	118	 1	 2.0	 0.8	 0.0	 0.0	 1	    1.06725	   -8.98612	 90.0	 1	    1.07012	    0.97778;
	119	 1	 35.5	 0.7	 0.0	 0.0	 1	    1.03334	   -8.94575	 63.0	 1	    1.06349	    0.93651;
	120	 1	 29.9	 -1.3	 0.0	 0.0	 1	    1.01410	  -17.90159	 63.0	 1	    1.06349	    0.93651;
	121	 1	 15.3	 3.7	 0.0	 0.0	 1	    1.03541	  -13.41068	 63.0	 1	    1.07937	    0.92063;
	122	 2	 0.0	 0.0	 0.0	 0.0	 1	    1.03339	  -10.66321	 63.0	 1	    1.07937	    0.95238;
	123	 1	 9.0	 2.7	 0.0	 0.0	 1	    1.03228	  -10.73105	 63.0	 1	    1.07937	    0.95238;
	124	 1	 8.9	 -4.0	 0.0	 0.0	 1	    1.04846	  -12.43381	 90.0	 1	    1.06667	    0.97778;
	125	 1	 4.8	 -3.1	 0.0	 0.0	 1	    1.04932	   -6.26718	 63.0	 1	    1.07937	    0.95238;
	126	 1	 -0.3	 0.5	 0.0	 0.0	 1	    1.05009	  -14.44282	 63.0	 1	    1.06349	    0.93651;
	127	 1	 6.5	 0.4	 0.0	 0.0	 1	    1.02767	  -11.78194	 63.0	 1	    1.04762	    0.95238;
	128	 1	 13.9	 5.6	 0.0	 0.0	 1	    1.04975	   -8.42252	 63.0	 1	    1.06349	    0.96825;
	129	 1	 18.8	 14.3	 0.0	 0.0	 1	    1.04989	   -7.19598	 63.0	 1	    1.06349	    0.96825;
	130	 1	 0.0	 0.0	 0.0	 0.0	 1	    1.06778	   -6.86983	 225.0	 1	    1.08444	    1.00889;
	131	 1	 82.0	 2.0	 0.0	 0.0	 1	    1.06010	  -12.78119	 225.0	 1	    1.08444	    1.00889;
	132	 2	 11.9	 0.0	 0.0	 0.0	 1	    1.04444	  -16.32785	 90.0	 1	    1.07778	    0.92222;
	133	 1	 1.3	 0.3	 0.0	 0.0	 1	    1.02434	  -13.79839	 63.0	 1	    1.04762	    0.95238;
	134	 1	 71.7	 15.7	 0.0	 0.0	 1	    1.06672	  -11.68260	 225.0	 1	    1.08889	    1.00444;
	135	 1	 0.0	 0.0	 0.0	 0.0	 1	    1.07499	  -12.29038	 225.0	 1	    1.08889	    1.00444;
	136	 1	 18.8	 2.3	 0.0	 0.0	 1	    1.04462	  -17.24104	 90.0	 1	    1.07778	    0.97778;
	137	 2	 13.4	 -9.1	 0.0	 0.0	 1	    1.02969	  -20.58494	 63.0	 1	    1.06349	    0.96825;
	138	 1	 0.0	 0.0	 0.0	 0.0	 1	    1.02392	  -17.64384	 150.0	 1	    1.08000	    0.96667;
	139	 1	 8.6	 -1.0	 0.0	 0.0	 1	    1.06509	  -14.48660	 63.0	 1	    1.07937	    0.92063;
	140	 1	 0.0	 0.0	 0.0	 0.0	 1	    1.08863	  -11.89384	 225.0	 1	    1.08889	    1.00000;
	141	 1	 0.0	 0.0	 0.0	 0.0	 1	    1.09757	   -9.37620	 380.0	 1	    1.10526	    1.05263;
	142	 1	 15.8	 1.3	 0.0	 0.0	 1	    1.00872	  -13.07954	 63.0	 1	    1.07937	    0.95238;
	143	 1	 0.0	 0.0	 0.0	 0.0	 1	    1.04885	   -9.59957	 225.0	 1	    1.08889	    0.98667;
	144	 1	 0.0	 0.0	 0.0	 -64.0	 1	    1.07309	   -6.03201	 20.0	 1	    1.15000	    0.80000;
	145	 1	 21.2	 10.0	 0.0	 0.0	 1	    1.07368	   -8.29354	 90.0	 1	    1.11111	    0.95556;
	146	 1	 25.6	 6.2	 0.0	 0.0	 1	    1.07750	   -5.45352	 225.0	 1	    1.08889	    0.96889;
	147	 1	 0.0	 0.0	 0.0	 0.0	 1	    1.08266	   -2.86946	 380.0	 1	    1.10526	    1.00000;
	148	 1	 25.0	 3.6	 0.0	 0.0	 1	    1.03506	  -18.65238	 63.0	 1	    1.06349	    0.93651;
	149	 1	 6.3	 2.2	 0.0	 0.0	 1	    1.03526	  -13.67202	 63.0	 1	    1.06349	    0.93651;
	150	 1	 17.9	 5.1	 0.0	 0.0	 1	    1.03400	  -15.12720	 90.0	 1	    1.06667	    0.97778;
	151	 1	 41.9	 5.6	 0.0	 0.0	 1	    1.02925	  -16.12087	 63.0	 1	    1.06349	    0.93651;
	152	 1	 0.0	 0.0	 0.0	 0.0	 1	    1.02730	  -19.35824	 63.0	 1	    1.06349	    0.96825;
	153	 1	 34.2	 5.9	 0.0	 7.7	 1	    1.02732	  -18.08596	 63.0	 1	    1.06349	    0.96825;
	154	 1	 20.4	 0.6	 0.0	 0.0	 1	    1.02469	  -15.43362	 63.0	 1	    1.06349	    0.93651;
	155	 1	 0.0	 0.0	 0.0	 0.0	 1	    1.04975	  -11.92126	 225.0	 1	    1.08889	    0.93333;
	156	 2	 0.0	 0.0	 0.0	 0.0	 1	    1.03888	  -21.46705	 63.0	 1	    1.07937	    0.92063;
	157	 1	 0.0	 0.0	 0.0	 0.0	 1	    1.02728	  -19.36152	 63.0	 1	    1.06349	    0.96825;
	158	 1	 -0.1	 -2.1	 0.0	 0.0	 1	    0.89413	  -16.66667	 45.0	 1	    1.00000	    0.88889;
	159	 2	 0.0	 0.0	 0.0	 0.0	 1	    0.94358	  -14.21157	 45.0	 1	    1.00000	    0.88889;
	160	 1	 0.0	 0.0	 0.0	 0.0	 1	    1.01196	  -18.65445	 63.0	 1	    1.06349	    0.93651;
	161	 1	 29.5	 2.3	 0.0	 0.0	 1	    1.08179	   -6.59154	 225.0	 1	    1.08889	    0.88889;
	162	 1	 31.5	 7.4	 0.0	 0.0	 1	    1.08158	   -6.59466	 225.0	 1	    1.08889	    0.88889;
	163	 1	 0.4	 -1.6	 0.0	 0.0	 1	    1.04995	   -6.94673	 90.0	 1	    1.06667	    0.97778;
	164	 1	 0.0	 0.0	 0.0	 0.0	 1	    1.04712	   -9.35531	 63.0	 1	    1.07937	    0.95238;
	165	 1	 0.0	 0.0	 0.0	 0.0	 1	    1.04712	   -9.35531	 63.0	 1	    1.07937	    0.95238;
	166	 1	 11.3	 -3.9	 0.0	 0.0	 1	    1.08643	  -10.83481	 20.0	 1	    1.15000	    0.80000;
	167	 1	 5.8	 1.4	 0.0	 0.0	 1	    1.04706	  -14.30173	 90.0	 1	    1.06667	    0.97778;
	168	 1	 7.8	 -0.9	 0.0	 0.0	 1	    1.04759	  -14.41481	 90.0	 1	    1.06667	    0.97778;
	169	 1	 0.0	 0.0	 0.0	 0.0	 1	    1.08640	  -10.83007	 225.0	 1	    1.08642	    1.00444;
	170	 1	 9.1	 -1.1	 0.0	 0.0	 1	    1.04136	  -14.30793	 90.0	 1	    1.06667	    0.97778;
	171	 1	 60.0	 6.1	 0.0	 0.0	 1	    1.05975	  -13.36884	 90.0	 1	    1.07778	    0.97778;
	172	 1	 21.4	 -1.8	 0.0	 0.0	 1	    1.04970	  -15.84804	 90.0	 1	    1.07778	    0.97778;
	173	 1	 0.0	 0.0	 0.0	 0.0	 1	    1.07618	  -12.51929	 225.0	 1	    1.08889	    1.00444;
	174	 1	 26.6	 6.6	 0.0	 0.0	 1	    1.08842	   -8.43839	 90.0	 1	    1.08889	    0.93333;
	175	 1	 35.7	 -1.5	 0.0	 0.0	 1	    1.09459	  -10.74449	 90.0	 1	    1.11111	    0.95556;
	176	 1	 0.0	 0.0	 0.0	 0.0	 1	    1.03268	  -19.15337	 63.0	 1	    1.07937	    0.92063;
	177	 1	 0.0	 0.0	 0.0	 0.0	 1	    1.03371	  -16.80335	 63.0	 1	    1.07937	    0.92063;
	178	 2	 0.0	 0.0	 0.0	 0.0	 1	    1.09996	  -17.77847	 150.0	 1	    1.10000	    0.90000;
	179	 1	 0.0	 0.0	 0.0	 0.0	 1	    1.06713	   -9.62644	 225.0	 1	    1.08889	    1.00444;
	180	 1	 0.0	 0.0	 0.0	 0.0	 1	    1.06713	   -9.62644	 225.0	 1	    1.08889	    1.00444;
	181	 1	 0.0	 0.0	 0.0	 -32.0	 1	    0.98728	  -11.88354	 20.0	 1	    1.15000	    0.80000;
	182	 1	 0.0	 0.0	 0.0	 -32.0	 1	    1.02027	  -11.83980	 20.0	 1	    1.15000	    0.80000;
	183	 1	 0.0	 0.0	 0.0	 0.0	 1	    1.02774	  -11.77541	 63.0	 1	    1.04762	    0.95238;
	184	 1	 0.0	 0.0	 0.0	 -80.0	 1	    1.06713	   -9.62644	 225.0	 1	    1.08889	    1.00444;
	185	 1	 12.1	 -5.9	 0.0	 0.0	 1	    1.06076	  -18.86331	 63.0	 1	    1.07937	    0.92063;
	186	 1	 16.0	 3.1	 0.0	 0.0	 1	    1.03973	   -9.78169	 63.0	 1	    1.06349	    0.93651;
	187	 1	 5.4	 0.3	 0.0	 0.0	 1	    1.02004	  -13.77439	 63.0	 1	    1.07937	    0.95238;
	188	 1	 3.0	 0.4	 0.0	 0.0	 1	    1.07045	   -5.56162	 90.0	 1	    1.07778	    0.97778;
	189	 1	 21.9	 2.4	 0.0	 0.0	 1	    1.00318	  -13.77615	 63.0	 1	    1.07937	    0.95238;
	190	 1	 1.4	 -0.7	 0.0	 0.0	 1	    1.04379	   -7.07841	 90.0	 1	    1.06667	    0.97778;
	191	 2	 0.0	 0.0	 0.0	 0.0	 1	    1.06373	  -20.56931	 63.0	 1	    1.07937	    0.92063;
	192	 1	 12.5	 1.1	 0.0	 0.0	 1	    1.04723	  -15.77809	 63.0	 1	    1.07937	    0.92063;
	193	 2	 0.0	 0.0	 0.0	 0.0	 1	    0.93482	  -15.17690	 45.0	 1	    1.00000	    0.88889;
	194	 1	 12.7	 -1.3	 0.0	 0.0	 1	    1.04184	  -14.55949	 90.0	 1	    1.06667	    0.97778;
	195	 1	 7.3	 -1.4	 0.0	 0.0	 1	    1.05103	  -17.79579	 63.0	 1	    1.07937	    0.92063;
	196	 1	 7.7	 5.3	 0.0	 0.0	 1	    1.07530	  -10.01277	 225.0	 1	    1.08889	    1.00444;
	197	 2	 1.4	 -3.2	 0.0	 0.0	 1	    1.06518	  -18.82347	 63.0	 1	    1.07937	    0.92063;
	198	 1	 0.0	 0.0	 0.0	 0.0	 1	    1.09441	  -11.73921	 63.0	 1	    1.09743	    0.95238;
	199	 1	 0.0	 0.0	 0.0	 0.0	 1	    1.09441	  -11.73925	 63.0	 1	    1.09743	    0.95238;
	200	 1	 25.0	 -4.9	 0.0	 0.0	 1	    1.05873	  -22.90035	 63.0	 1	    1.07937	    0.92063;
...
];

%% generator data
%	bus	Pg	Qg	Qmax	Qmin	Vg	mBase	status	Pmax	Pmin	Pc1	Pc2	Qc1min	Qc1max	Qc2min	Qc2max	ramp_agc	ramp_10	ramp_30	ramp_q	apf
mpc.gen = [
	4	 0.0	 0.0	 0.0	 0.0	 1.07563	 100.0	 0	 12.0	 0.0	 0.0	 0.0	 0.0	 0.0	 0.0	 0.0	 0.0	 0.0	 0.0	 0.0	 0.0;
	4	 0.0	 0.0	 0.0	 0.0	 1.07563	 100.0	 0	 10.0	 0.0	 0.0	 0.0	 0.0	 0.0	 0.0	 0.0	 0.0	 0.0	 0.0	 0.0	 0.0;
	5	 0.0	 0.0	 0.0	 0.0	 1.0232	 100.0	 0	 9.1	 0.0	 0.0	 0.0	 0.0	 0.0	 0.0	 0.0	 0.0	 0.0	 0.0	 0.0	 0.0;
	11	 0.0	 0.0	 0.0	 0.0	 1.07257	 100.0	 0	 28.0	 0.0	 0.0	 0.0	 0.0	 0.0	 0.0	 0.0	 0.0	 0.0	 0.0	 0.0	 0.0;
	11	 0.0	 0.0	 0.0	 0.0	 1.07257	 100.0	 0	 18.0	 0.0	 0.0	 0.0	 0.0	 0.0	 0.0	 0.0	 0.0	 0.0	 0.0	 0.0	 0.0;
	17	 0.0	 0.0	 0.0	 0.0	 1.04607	 100.0	 0	 8.2	 0.0	 0.0	 0.0	 0.0	 0.0	 0.0	 0.0	 0.0	 0.0	 0.0	 0.0	 0.0;
	19	 0.0	 0.0	 0.0	 0.0	 1.03331	 100.0	 0	 1.2	 0.0	 0.0	 0.0	 0.0	 0.0	 0.0	 0.0	 0.0	 0.0	 0.0	 0.0	 0.0;
	22	 0.0	 0.0	 0.0	 0.0	 1.02456	 100.0	 0	 10.0	 0.0	 0.0	 0.0	 0.0	 0.0	 0.0	 0.0	 0.0	 0.0	 0.0	 0.0	 0.0;
	24	 0.0	 0.0	 0.0	 0.0	 1.07048	 100.0	 0	 16.1	 0.0	 0.0	 0.0	 0.0	 0.0	 0.0	 0.0	 0.0	 0.0	 0.0	 0.0	 0.0;
	24	 0.0	 0.0	 0.0	 0.0	 1.07048	 100.0	 0	 35.5	 0.0	 0.0	 0.0	 0.0	 0.0	 0.0	 0.0	 0.0	 0.0	 0.0	 0.0	 0.0;
	25	 0.0	 0.0	 0.0	 0.0	 1.0946	 100.0	 0	 36.0	 0.0	 0.0	 0.0	 0.0	 0.0	 0.0	 0.0	 0.0	 0.0	 0.0	 0.0	 0.0;
	25	 0.0	 0.0	 0.0	 0.0	 1.0946	 100.0	 0	 27.2	 0.0	 0.0	 0.0	 0.0	 0.0	 0.0	 0.0	 0.0	 0.0	 0.0	 0.0	 0.0;
	40	 0.0	 0.0	 0.0	 0.0	 1.06572	 100.0	 0	 8.0	 0.0	 0.0	 0.0	 0.0	 0.0	 0.0	 0.0	 0.0	 0.0	 0.0	 0.0	 0.0;
	47	 0.0	 -3.11	 9.5	 -9.5	 1.00453	 100.0	 0	 16.0	 0.0	 0.0	 0.0	 0.0	 0.0	 0.0	 0.0	 0.0	 0.0	 0.0	 0.0	 0.0;
	47	 0.0	 -3.11	 9.5	 -9.5	 1.00453	 100.0	 0	 16.0	 0.0	 0.0	 0.0	 0.0	 0.0	 0.0	 0.0	 0.0	 0.0	 0.0	 0.0	 0.0;
	48	 0.0	 0.0	 0.0	 0.0	 1.05719	 100.0	 0	 23.0	 0.0	 0.0	 0.0	 0.0	 0.0	 0.0	 0.0	 0.0	 0.0	 0.0	 0.0	 0.0;
	48	 0.0	 0.0	 0.0	 0.0	 1.05719	 100.0	 0	 24.0	 0.0	 0.0	 0.0	 0.0	 0.0	 0.0	 0.0	 0.0	 0.0	 0.0	 0.0	 0.0;
	57	 0.0	 0.9	 1.0	 0.9	 1.05129	 100.0	 1	 13.0	 0.0	 0.0	 0.0	 0.0	 0.0	 0.0	 0.0	 0.0	 0.0	 0.0	 0.0	 0.0;
	64	 0.0	 0.0	 0.0	 0.0	 1.0771	 100.0	 0	 24.0	 0.0	 0.0	 0.0	 0.0	 0.0	 0.0	 0.0	 0.0	 0.0	 0.0	 0.0	 0.0;
	64	 0.0	 0.0	 0.0	 0.0	 1.0771	 100.0	 0	 27.6	 0.0	 0.0	 0.0	 0.0	 0.0	 0.0	 0.0	 0.0	 0.0	 0.0	 0.0	 0.0;
	69	 27.307	 0.0	 0.0	 0.0	 1.06349	 100.0	 1	 30.04	 0.0	 0.0	 0.0	 0.0	 0.0	 0.0	 0.0	 0.0	 0.0	 0.0	 0.0	 0.0;
	70	 0.0	 0.0	 0.0	 0.0	 1.04314	 100.0	 0	 23.0	 0.0	 0.0	 0.0	 0.0	 0.0	 0.0	 0.0	 0.0	 0.0	 0.0	 0.0	 0.0;
	85	 0.0	 0.0	 0.0	 0.0	 1.05112	 100.0	 0	 6.68	 0.0	 0.0	 0.0	 0.0	 0.0	 0.0	 0.0	 0.0	 0.0	 0.0	 0.0	 0.0;
	86	 0.0	 0.0	 0.0	 0.0	 1.03148	 100.0	 0	 9.2	 0.0	 0.0	 0.0	 0.0	 0.0	 0.0	 0.0	 0.0	 0.0	 0.0	 0.0	 0.0;
	102	 46.0	 -1.916	 21.0	 -9.0	 1.03529	 100.0	 1	 46.0	 0.0	 0.0	 0.0	 0.0	 0.0	 0.0	 0.0	 0.0	 0.0	 0.0	 0.0	 0.0;
	122	 0.0	 -0.8	 5.0	 -2.0	 1.03339	 100.0	 0	 12.0	 0.0	 0.0	 0.0	 0.0	 0.0	 0.0	 0.0	 0.0	 0.0	 0.0	 0.0	 0.0;
	124	 0.0	 0.0	 0.0	 0.0	 1.04846	 100.0	 0	 9.0	 0.0	 0.0	 0.0	 0.0	 0.0	 0.0	 0.0	 0.0	 0.0	 0.0	 0.0	 0.0;
	125	 26.0	 0.0	 0.0	 0.0	 1.04932	 100.0	 1	 26.0	 0.0	 0.0	 0.0	 0.0	 0.0	 0.0	 0.0	 0.0	 0.0	 0.0	 0.0	 0.0;
	125	 0.0	 0.0	 0.0	 0.0	 1.04932	 100.0	 0	 12.0	 0.0	 0.0	 0.0	 0.0	 0.0	 0.0	 0.0	 0.0	 0.0	 0.0	 0.0	 0.0;
	132	 0.0	 0.75	 3.0	 -3.0	 1.04444	 100.0	 0	 17.0	 0.0	 0.0	 0.0	 0.0	 0.0	 0.0	 0.0	 0.0	 0.0	 0.0	 0.0	 0.0;
	132	 0.0	 0.75	 1.0	 -1.0	 1.04444	 100.0	 0	 4.0	 0.0	 0.0	 0.0	 0.0	 0.0	 0.0	 0.0	 0.0	 0.0	 0.0	 0.0	 0.0;
	132	 0.0	 0.75	 3.0	 -3.0	 1.04444	 100.0	 0	 14.0	 0.0	 0.0	 0.0	 0.0	 0.0	 0.0	 0.0	 0.0	 0.0	 0.0	 0.0	 0.0;
	132	 0.0	 0.75	 3.0	 -3.0	 1.04444	 100.0	 0	 14.0	 0.0	 0.0	 0.0	 0.0	 0.0	 0.0	 0.0	 0.0	 0.0	 0.0	 0.0	 0.0;
	137	 0.0	 -0.8	 0.8	 -0.8	 1.02969	 100.0	 0	 18.0	 0.0	 0.0	 0.0	 0.0	 0.0	 0.0	 0.0	 0.0	 0.0	 0.0	 0.0	 0.0;
	137	 0.0	 -0.8	 0.8	 -0.8	 1.02969	 100.0	 0	 18.0	 0.0	 0.0	 0.0	 0.0	 0.0	 0.0	 0.0	 0.0	 0.0	 0.0	 0.0	 0.0;
	156	 0.0	 1.5	 1.76	 -1.76	 1.03888	 100.0	 0	 5.3	 0.0	 0.0	 0.0	 0.0	 0.0	 0.0	 0.0	 0.0	 0.0	 0.0	 0.0	 0.0;
	159	 0.0	 1.1	 10.0	 -13.0	 0.94358	 100.0	 0	 17.9	 0.0	 0.0	 0.0	 0.0	 0.0	 0.0	 0.0	 0.0	 0.0	 0.0	 0.0	 0.0;
	159	 0.0	 -1.9	 10.0	 -13.0	 0.94358	 100.0	 0	 17.9	 0.0	 0.0	 0.0	 0.0	 0.0	 0.0	 0.0	 0.0	 0.0	 0.0	 0.0	 0.0;
	178	 0.0	 -1.31	 10.0	 -4.0	 1.09996	 100.0	 0	 30.0	 0.0	 0.0	 0.0	 0.0	 0.0	 0.0	 0.0	 0.0	 0.0	 0.0	 0.0	 0.0;
	191	 0.0	 -0.09	 8.0	 -8.0	 1.06373	 100.0	 0	 11.0	 0.0	 0.0	 0.0	 0.0	 0.0	 0.0	 0.0	 0.0	 0.0	 0.0	 0.0	 0.0;
	191	 0.0	 -0.09	 2.0	 -2.0	 1.06373	 100.0	 0	 11.0	 0.0	 0.0	 0.0	 0.0	 0.0	 0.0	 0.0	 0.0	 0.0	 0.0	 0.0	 0.0;
	193	 0.0	 -2.64	 14.0	 -14.0	 0.93482	 100.0	 0	 30.0	 0.0	 0.0	 0.0	 0.0	 0.0	 0.0	 0.0	 0.0	 0.0	 0.0	 0.0	 0.0;
	195	 0.0	 0.0	 0.0	 0.0	 1.05103	 100.0	 0	 23.5	 0.0	 0.0	 0.0	 0.0	 0.0	 0.0	 0.0	 0.0	 0.0	 0.0	 0.0	 0.0;
	197	 0.0	 0.9	 1.0	 0.9	 1.06518	 100.0	 1	 15.0	 0.0	 0.0	 0.0	 0.0	 0.0	 0.0	 0.0	 0.0	 0.0	 0.0	 0.0	 0.0;
	197	 0.0	 0.9	 1.0	 0.9	 1.06518	 100.0	 1	 15.0	 0.0	 0.0	 0.0	 0.0	 0.0	 0.0	 0.0	 0.0	 0.0	 0.0	 0.0	 0.0;
	220	 0.0	 0.0	 0.0	 0.0	 1.03326	 100.0	 0	 11.94	 0.0	 0.0	 0.0	 0.0	 0.0	 0.0	 0.0	 0.0	 0.0	 0.0	 0.0	 0.0;
	227	 0.0	 0.0	 2.0	 0.0	 1.09991	 100.0	 0	 6.0	 0.0	 0.0	 0.0	 0.0	 0.0	 0.0	 0.0	 0.0	 0.0	 0.0	 0.0	 0.0;
	230	 0.0	 0.0	 0.0	 0.0	 1.02863	 100.0	 0	 7.5	 0.0	 0.0	 0.0	 0.0	 0.0	 0.0	 0.0	 0.0	 0.0	 0.0	 0.0	 0.0;
	239	 0.0	 0.0	 0.0	 0.0	 1.06789	 100.0	 0	 33.5	 0.0	 0.0	 0.0	 0.0	 0.0	 0.0	 0.0	 0.0	 0.0	 0.0	 0.0	 0.0;
	239	 0.0	 0.0	 0.0	 0.0	 1.06789	 100.0	 0	 24.3	 0.0	 0.0	 0.0	 0.0	 0.0	 0.0	 0.0	 0.0	 0.0	 0.0	 0.0	 0.0;
	241	 0.0	 0.0	 0.0	 0.0	 1.0392	 100.0	 0	 8.0	 0.0	 0.0	 0.0	 0.0	 0.0	 0.0	 0.0	 0.0	 0.0	 0.0	 0.0	 0.0;
	241	 0.0	 0.0	 0.0	 0.0	 1.0392	 100.0	 0	 36.0	 0.0	 0.0	 0.0	 0.0	 0.0	 0.0	 0.0	 0.0	 0.0	 0.0	 0.0	 0.0;
	249	 0.0	 0.0	 2.0	 0.0	 0.99144	 100.0	 0	 1.0	 0.0	 0.0	 0.0	 0.0	 0.0	 0.0	 0.0	 0.0	 0.0	 0.0	 0.0	 0.0;
	249	 0.0	 -2.59	 10.0	 -10.0	 0.99144	 100.0	 0	 31.0	 0.0	 0.0	 0.0	 0.0	 0.0	 0.0	 0.0	 0.0	 0.0	 0.0	 0.0	 0.0;
	249	 0.0	 -2.59	 10.0	 -10.0	 0.99144	 100.0	 0	 31.0	 0.0	 0.0	 0.0	 0.0	 0.0	 0.0	 0.0	 0.0	 0.0	 0.0	 0.0	 0.0;
	249	 0.0	 -2.59	 10.0	 -10.0	 0.99144	 100.0	 0	 31.0	 0.0	 0.0	 0.0	 0.0	 0.0	 0.0	 0.0	 0.0	 0.0	 0.0	 0.0	 0.0;
	259	 0.0	 3.48	 10.0	 -10.0	 1.03122	 100.0	 0	 26.0	 0.0	 0.0	 0.0	 0.0	 0.0	 0.0	 0.0	 0.0	 0.0	 0.0	 0.0	 0.0;
	259	 0.0	 2.51	 10.0	 -10.0	 1.03122	 100.0	 0	 26.0	 0.0	 0.0	 0.0	 0.0	 0.0	 0.0	 0.0	 0.0	 0.0	 0.0	 0.0	 0.0;
	261	 0.0	 0.0	 1.0	 0.9	 1.05408	 100.0	 0	 30.0	 0.0	 0.0	 0.0	 0.0	 0.0	 0.0	 0.0	 0.0	 0.0	 0.0	 0.0	 0.0;
	264	 0.0	 4.0	 4.0	 -4.0	 1.03	 100.0	 0	 8.0	 0.0	 0.0	 0.0	 0.0	 0.0	 0.0	 0.0	 0.0	 0.0	 0.0	 0.0	 0.0;
	272	 0.0	 0.0	 0.0	 0.0	 1.02344	 100.0	 0	 12.6	 0.0	 0.0	 0.0	 0.0	 0.0	 0.0	 0.0	 0.0	 0.0	 0.0	 0.0	 0.0;
	285	 0.0	 -2.62	 6.1	 -6.2	 0.99144	 100.0	 0	 11.6	 0.0	 0.0	 0.0	 0.0	 0.0	 0.0	 0.0	 0.0	 0.0	 0.0	 0.0	 0.0;
	298	 0.0	 0.0	 0.0	 0.0	 1.07502	 100.0	 0	 25.3	 0.0	 0.0	 0.0	 0.0	 0.0	 0.0	 0.0	 0.0	 0.0	 0.0	 0.0	 0.0;
	299	 0.0	 0.0	 0.0	 0.0	 1.02914	 100.0	 0	 12.0	 0.0	 0.0	 0.0	 0.0	 0.0	 0.0	 0.0	 0.0	 0.0	 0.0	 0.0	 0.0;
	308	 0.0	 -6.7	 9.0	 -9.0	 1.06349	 100.0	 0	 15.0	 0.0	 0.0	 0.0	 0.0	 0.0	 0.0	 0.0	 0.0	 0.0	 0.0	 0.0	 0.0;
	315	 25.8	 0.0	 0.0	 0.0	 1.02663	 100.0	 1	 25.8	 0.0	 0.0	 0.0	 0.0	 0.0	 0.0	 0.0	 0.0	 0.0	 0.0	 0.0	 0.0;
	315	 49.6	 0.0	 0.0	 0.0	 1.02663	 100.0	 1	 49.6	 0.0	 0.0	 0.0	 0.0	 0.0	 0.0	 0.0	 0.0	 0.0	 0.0	 0.0	 0.0;
	320	 0.0	 0.0	 0.0	 0.0	 1.05265	 100.0	 0	 0.0	 -7.0	 0.0	 0.0	 0.0	 0.0	 0.0	 0.0	 0.0	 0.0	 0.0	 0.0	 0.0;
	320	 0.0	 0.0	 0.0	 0.0	 1.05265	 100.0	 0	 0.0	 -7.0	 0.0	 0.0	 0.0	 0.0	 0.0	 0.0	 0.0	 0.0	 0.0	 0.0	 0.0;
	322	 0.0	 0.1	 0.1	 -0.1	 1.06052	 100.0	 0	 10.8	 0.0	 0.0	 0.0	 0.0	 0.0	 0.0	 0.0	 0.0	 0.0	 0.0	 0.0	 0.0;
	328	 0.0	 -0.23	 4.0	 -4.0	 1.03844	 100.0	 0	 11.0	 0.0	 0.0	 0.0	 0.0	 0.0	 0.0	 0.0	 0.0	 0.0	 0.0	 0.0	 0.0;
	335	 0.0	 2.42	 13.0	 -9.0	 1.03766	 100.0	 0	 25.0	 0.0	 0.0	 0.0	 0.0	 0.0	 0.0	 0.0	 0.0	 0.0	 0.0	 0.0	 0.0;
	336	 0.0	 4.48	 13.0	 -9.0	 1.03421	 100.0	 0	 25.0	 0.0	 0.0	 0.0	 0.0	 0.0	 0.0	 0.0	 0.0	 0.0	 0.0	 0.0	 0.0;
	339	 0.0	 2.68	 5.0	 -6.0	 1.0033	 100.0	 0	 13.0	 0.0	 0.0	 0.0	 0.0	 0.0	 0.0	 0.0	 0.0	 0.0	 0.0	 0.0	 0.0;
	341	 0.0	 1.05	 10.0	 -10.0	 1.06655	 100.0	 0	 21.0	 0.0	 0.0	 0.0	 0.0	 0.0	 0.0	 0.0	 0.0	 0.0	 0.0	 0.0	 0.0;
	341	 0.0	 0.1	 0.1	 -0.1	 1.06655	 100.0	 0	 2.0	 0.0	 0.0	 0.0	 0.0	 0.0	 0.0	 0.0	 0.0	 0.0	 0.0	 0.0	 0.0;
	348	 0.0	 0.0	 0.0	 0.0	 1.06036	 100.0	 0	 2.3	 0.0	 0.0	 0.0	 0.0	 0.0	 0.0	 0.0	 0.0	 0.0	 0.0	 0.0	 0.0;
	348	 19.5	 0.0	 0.0	 0.0	 1.06036	 100.0	 1	 19.5	 0.0	 0.0	 0.0	 0.0	 0.0	 0.0	 0.0	 0.0	 0.0	 0.0	 0.0	 0.0;
	351	 0.0	 0.0	 0.0	 0.0	 1.08343	 100.0	 0	 22.0	 0.0	 0.0	 0.0	 0.0	 0.0	 0.0	 0.0	 0.0	 0.0	 0.0	 0.0	 0.0;
	359	 0.0	 9.21	 30.0	 -30.0	 1.01586	 100.0	 0	 30.0	 0.0	 0.0	 0.0	 0.0	 0.0	 0.0	 0.0	 0.0	 0.0	 0.0	 0.0	 0.0;
	360	 0.0	 0.0	 0.0	 0.0	 1.00617	 100.0	 0	 12.0	 0.0	 0.0	 0.0	 0.0	 0.0	 0.0	 0.0	 0.0	 0.0	 0.0	 0.0	 0.0;
	360	 0.0	 0.0	 0.0	 0.0	 1.00617	 100.0	 0	 12.0	 0.0	 0.0	 0.0	 0.0	 0.0	 0.0	 0.0	 0.0	 0.0	 0.0	 0.0	 0.0;
	367	 130.0	 -26.0	 59.0	 -26.0	 1.06541	 100.0	 1	 130.0	 0.0	 0.0	 0.0	 0.0	 0.0	 0.0	 0.0	 0.0	 0.0	 0.0	 0.0	 0.0;
	394	 0.0	 0.0	 0.0	 0.0	 1.03588	 100.0	 0	 2.7	 0.0	 0.0	 0.0	 0.0	 0.0	 0.0	 0.0	 0.0	 0.0	 0.0	 0.0	 0.0;
	413	 0.0	 0.0	 0.0	 0.0	 1.03269	 100.0	 0	 10.0	 0.0	 0.0	 0.0	 0.0	 0.0	 0.0	 0.0	 0.0	 0.0	 0.0	 0.0	 0.0;
	413	 0.0	 0.0	 0.0	 0.0	 1.03269	 100.0	 0	 11.5	 0.0	 0.0	 0.0	 0.0	 0.0	 0.0	 0.0	 0.0	 0.0	 0.0	 0.0	 0.0;
	433	 0.0	 0.0	 0.0	 0.0	 1.0538	 100.0	 0	 12.0	 0.0	 0.0	 0.0	 0.0	 0.0	 0.0	 0.0	 0.0	 0.0	 0.0	 0.0	 0.0;
	442	 0.0	 5.39	 10.96	 -11.99	 1.02985	 100.0	 0	 34.25	 0.0	 0.0	 0.0	 0.0	 0.0	 0.0	 0.0	 0.0	 0.0	 0.0	 0.0	 0.0;
	449	 0.0	 -0.57	 8.0	 -9.0	 1.00363	 100.0	 0	 25.0	 0.0	 0.0	 0.0	 0.0	 0.0	 0.0	 0.0	 0.0	 0.0	 0.0	 0.0	 0.0;
	465	 0.0	 0.0	 0.0	 0.0	 1.02612	 100.0	 0	 2.4	 0.0	 0.0	 0.0	 0.0	 0.0	 0.0	 0.0	 0.0	 0.0	 0.0	 0.0	 0.0;
	465	 0.0	 0.0	 0.0	 0.0	 1.02612	 100.0	 0	 16.0	 0.0	 0.0	 0.0	 0.0	 0.0	 0.0	 0.0	 0.0	 0.0	 0.0	 0.0	 0.0;
	467	 27.0	 -1.245	 6.0	 -3.0	 1.16999	 100.0	 1	 27.0	 1.0	 0.0	 0.0	 0.0	 0.0	 0.0	 0.0	 0.0	 0.0	 0.0	 0.0	 0.0;
	467	 27.0	 -1.245	 6.0	 -3.0	 1.16999	 100.0	 1	 27.0	 1.0	 0.0	 0.0	 0.0	 0.0	 0.0	 0.0	 0.0	 0.0	 0.0	 0.0	 0.0;
	469	 48.0	 -1.539	 19.0	 -10.0	 1.03491	 100.0	 1	 48.0	 1.0	 0.0	 0.0	 0.0	 0.0	 0.0	 0.0	 0.0	 0.0	 0.0	 0.0	 0.0;
	473	 0.0	 -3.72	 6.0	 -6.0	 1.03302	 100.0	 0	 10.0	 0.0	 0.0	 0.0	 0.0	 0.0	 0.0	 0.0	 0.0	 0.0	 0.0	 0.0	 0.0;
	473	 0.0	 -5.4	 5.4	 -5.4	 1.03302	 100.0	 0	 9.0	 0.0	 0.0	 0.0	 0.0	 0.0	 0.0	 0.0	 0.0	 0.0	 0.0	 0.0	 0.0;
	482	 0.0	 -2.21	 17.0	 -16.0	 0.99665	 100.0	 0	 27.0	 0.0	 0.0	 0.0	 0.0	 0.0	 0.0	 0.0	 0.0	 0.0	 0.0	 0.0	 0.0;
	482	 0.0	 -2.21	 17.0	 -16.0	 0.99665	 100.0	 0	 27.0	 0.0	 0.0	 0.0	 0.0	 0.0	 0.0	 0.0	 0.0	 0.0	 0.0	 0.0	 0.0;
	482	 0.0	 -2.21	 17.0	 -16.0	 0.99665	 100.0	 0	 27.0	 0.0	 0.0	 0.0	 0.0	 0.0	 0.0	 0.0	 0.0	 0.0	 0.0	 0.0	 0.0;
	494	 0.0	 0.09	 8.0	 -17.0	 1.07164	 100.0	 0	 23.4	 0.0	 0.0	 0.0	 0.0	 0.0	 0.0	 0.0	 0.0	 0.0	 0.0	 0.0	 0.0;
	511	 0.0	 1.56	 2.0	 -2.0	 1.00271	 100.0	 0	 4.0	 0.0	 0.0	 0.0	 0.0	 0.0	 0.0	 0.0	 0.0	 0.0	 0.0	 0.0	 0.0;
	520	 0.0	 0.0	 0.0	 0.0	 1.03481	 100.0	 0	 10.0	 0.0	 0.0	 0.0	 0.0	 0.0	 0.0	 0.0	 0.0	 0.0	 0.0	 0.0	 0.0;
	521	 0.0	 0.0	 0.0	 0.0	 1.0404	 100.0	 0	 12.0	 0.0	 0.0	 0.0	 0.0	 0.0	 0.0	 0.0	 0.0	 0.0	 0.0	 0.0	 0.0;
	531	 0.0	 -1.49	 4.8	 -4.8	 1.00448	 100.0	 0	 8.0	 0.0	 0.0	 0.0	 0.0	 0.0	 0.0	 0.0	 0.0	 0.0	 0.0	 0.0	 0.0;
	531	 0.0	 -1.49	 4.8	 -4.8	 1.00448	 100.0	 0	 8.0	 0.0	 0.0	 0.0	 0.0	 0.0	 0.0	 0.0	 0.0	 0.0	 0.0	 0.0	 0.0;
	531	 0.0	 -1.49	 4.8	 -4.8	 1.00448	 100.0	 0	 8.0	 0.0	 0.0	 0.0	 0.0	 0.0	 0.0	 0.0	 0.0	 0.0	 0.0	 0.0	 0.0;
	537	 0.0	 0.0	 0.0	 0.0	 1.04714	 100.0	 0	 12.0	 0.0	 0.0	 0.0	 0.0	 0.0	 0.0	 0.0	 0.0	 0.0	 0.0	 0.0	 0.0;
	537	 24.0	 0.0	 0.0	 0.0	 1.04714	 100.0	 1	 24.0	 0.0	 0.0	 0.0	 0.0	 0.0	 0.0	 0.0	 0.0	 0.0	 0.0	 0.0	 0.0;
	546	 0.0	 1.9	 2.0	 1.9	 1.03928	 100.0	 1	 9.0	 0.0	 0.0	 0.0	 0.0	 0.0	 0.0	 0.0	 0.0	 0.0	 0.0	 0.0	 0.0;
	549	 0.0	 2.0	 2.0	 0.0	 1.02975	 100.0	 0	 12.0	 0.0	 0.0	 0.0	 0.0	 0.0	 0.0	 0.0	 0.0	 0.0	 0.0	 0.0	 0.0;
	571	 0.0	 0.0	 0.0	 0.0	 1.03623	 100.0	 0	 12.0	 0.0	 0.0	 0.0	 0.0	 0.0	 0.0	 0.0	 0.0	 0.0	 0.0	 0.0	 0.0;
	571	 30.0	 0.0	 0.0	 0.0	 1.03623	 100.0	 1	 30.0	 0.0	 0.0	 0.0	 0.0	 0.0	 0.0	 0.0	 0.0	 0.0	 0.0	 0.0	 0.0;
	571	 0.0	 0.0	 0.0	 0.0	 1.03623	 100.0	 0	 11.5	 0.0	 0.0	 0.0	 0.0	 0.0	 0.0	 0.0	 0.0	 0.0	 0.0	 0.0	 0.0;
	584	 16.0	 1.516	 7.0	 -4.0	 1.02549	 100.0	 1	 16.0	 0.0	 0.0	 0.0	 0.0	 0.0	 0.0	 0.0	 0.0	 0.0	 0.0	 0.0	 0.0;
	586	 0.0	 0.0	 0.0	 0.0	 1.02654	 100.0	 0	 9.0	 0.0	 0.0	 0.0	 0.0	 0.0	 0.0	 0.0	 0.0	 0.0	 0.0	 0.0	 0.0;
	587	 0.0	 -4.04	 5.7	 -5.7	 1.01451	 100.0	 0	 9.5	 0.0	 0.0	 0.0	 0.0	 0.0	 0.0	 0.0	 0.0	 0.0	 0.0	 0.0	 0.0;
	590	 0.0	 0.1	 0.1	 -0.1	 1.03047	 100.0	 0	 1.0	 0.0	 0.0	 0.0	 0.0	 0.0	 0.0	 0.0	 0.0	 0.0	 0.0	 0.0	 0.0;
	594	 0.0	 2.85	 10.0	 -10.0	 1.0179	 100.0	 0	 21.0	 0.0	 0.0	 0.0	 0.0	 0.0	 0.0	 0.0	 0.0	 0.0	 0.0	 0.0	 0.0;
	601	 0.0	 1.0	 1.0	 -1.0	 1.02728	 100.0	 0	 6.1	 0.0	 0.0	 0.0	 0.0	 0.0	 0.0	 0.0	 0.0	 0.0	 0.0	 0.0	 0.0;
	611	 45.0	 15.049	 45.0	 -45.0	 1.05507	 100.0	 1	 45.0	 0.0	 0.0	 0.0	 0.0	 0.0	 0.0	 0.0	 0.0	 0.0	 0.0	 0.0	 0.0;
	611	 0.0	 -1.37	 45.0	 -45.0	 1.05507	 100.0	 0	 45.0	 0.0	 0.0	 0.0	 0.0	 0.0	 0.0	 0.0	 0.0	 0.0	 0.0	 0.0	 0.0;
	613	 0.0	 0.0	 0.0	 0.0	 1.02301	 100.0	 0	 12.0	 0.0	 0.0	 0.0	 0.0	 0.0	 0.0	 0.0	 0.0	 0.0	 0.0	 0.0	 0.0;
	613	 0.0	 0.0	 0.0	 0.0	 1.02301	 100.0	 0	 12.0	 0.0	 0.0	 0.0	 0.0	 0.0	 0.0	 0.0	 0.0	 0.0	 0.0	 0.0	 0.0;
	613	 0.0	 0.0	 0.0	 0.0	 1.02301	 100.0	 0	 12.0	 0.0	 0.0	 0.0	 0.0	 0.0	 0.0	 0.0	 0.0	 0.0	 0.0	 0.0	 0.0;
	614	 0.0	 0.0	 0.0	 0.0	 1.03148	 100.0	 0	 35.0	 0.0	 0.0	 0.0	 0.0	 0.0	 0.0	 0.0	 0.0	 0.0	 0.0	 0.0	 0.0;
	614	 0.0	 0.0	 0.0	 0.0	 1.03148	 100.0	 0	 11.5	 0.0	 0.0	 0.0	 0.0	 0.0	 0.0	 0.0	 0.0	 0.0	 0.0	 0.0	 0.0;
	626	 0.0	 -8.3	 8.3	 -8.3	 1.03165	 100.0	 0	 8.3	 -8.3	 0.0	 0.0	 0.0	 0.0	 0.0	 0.0	 0.0	 0.0	 0.0	 0.0	 0.0;
	635	 0.0	 -6.0	 4.0	 -6.0	 1.04845	 100.0	 0	 7.3	 0.0	 0.0	 0.0	 0.0	 0.0	 0.0	 0.0	 0.0	 0.0	 0.0	 0.0	 0.0;
	638	 0.0	 1.83	 7.0	 0.0	 1.02137	 100.0	 0	 15.0	 0.0	 0.0	 0.0	 0.0	 0.0	 0.0	 0.0	 0.0	 0.0	 0.0	 0.0	 0.0;
	638	 0.0	 5.83	 7.0	 0.0	 1.02137	 100.0	 0	 15.0	 0.0	 0.0	 0.0	 0.0	 0.0	 0.0	 0.0	 0.0	 0.0	 0.0	 0.0	 0.0;
	653	 0.0	 0.0	 7.0	 0.0	 1.05515	 100.0	 0	 7.0	 0.0	 0.0	 0.0	 0.0	 0.0	 0.0	 0.0	 0.0	 0.0	 0.0	 0.0	 0.0;
	671	 0.0	 0.0	 0.0	 0.0	 1.05178	 100.0	 0	 12.0	 0.0	 0.0	 0.0	 0.0	 0.0	 0.0	 0.0	 0.0	 0.0	 0.0	 0.0	 0.0;
	671	 0.0	 0.0	 0.0	 0.0	 1.05178	 100.0	 0	 12.0	 0.0	 0.0	 0.0	 0.0	 0.0	 0.0	 0.0	 0.0	 0.0	 0.0	 0.0	 0.0;
	672	 0.0	 0.0	 0.0	 0.0	 1.05283	 100.0	 0	 7.5	 0.0	 0.0	 0.0	 0.0	 0.0	 0.0	 0.0	 0.0	 0.0	 0.0	 0.0	 0.0;
	672	 24.0	 0.0	 0.0	 0.0	 1.05283	 100.0	 1	 24.0	 0.0	 0.0	 0.0	 0.0	 0.0	 0.0	 0.0	 0.0	 0.0	 0.0	 0.0	 0.0;
	680	 0.0	 0.0	 0.0	 0.0	 1.02151	 100.0	 0	 6.6	 0.0	 0.0	 0.0	 0.0	 0.0	 0.0	 0.0	 0.0	 0.0	 0.0	 0.0	 0.0;
	681	 0.0	 0.0	 0.0	 0.0	 1.07278	 100.0	 0	 12.0	 0.0	 0.0	 0.0	 0.0	 0.0	 0.0	 0.0	 0.0	 0.0	 0.0	 0.0	 0.0;
	685	 0.0	 -0.6	 6.0	 -5.0	 0.89036	 100.0	 0	 9.0	 0.0	 0.0	 0.0	 0.0	 0.0	 0.0	 0.0	 0.0	 0.0	 0.0	 0.0	 0.0;
	685	 0.0	 -0.6	 6.0	 -5.0	 0.89036	 100.0	 0	 9.0	 0.0	 0.0	 0.0	 0.0	 0.0	 0.0	 0.0	 0.0	 0.0	 0.0	 0.0	 0.0;
	685	 0.0	 -0.6	 8.0	 -5.0	 0.89036	 100.0	 0	 11.0	 0.0	 0.0	 0.0	 0.0	 0.0	 0.0	 0.0	 0.0	 0.0	 0.0	 0.0	 0.0;
	685	 0.0	 -0.6	 8.0	 -5.0	 0.89036	 100.0	 0	 11.0	 0.0	 0.0	 0.0	 0.0	 0.0	 0.0	 0.0	 0.0	 0.0	 0.0	 0.0	 0.0;
	696	 32.35	 0.0	 0.0	 0.0	 1.07685	 100.0	 1	 32.35	 0.0	 0.0	 0.0	 0.0	 0.0	 0.0	 0.0	 0.0	 0.0	 0.0	 0.0	 0.0;
	696	 0.0	 0.0	 0.0	 0.0	 1.07685	 100.0	 0	 12.0	 0.0	 0.0	 0.0	 0.0	 0.0	 0.0	 0.0	 0.0	 0.0	 0.0	 0.0	 0.0;
	696	 0.0	 0.0	 0.0	 0.0	 1.07685	 100.0	 0	 21.0	 0.0	 0.0	 0.0	 0.0	 0.0	 0.0	 0.0	 0.0	 0.0	 0.0	 0.0	 0.0;
	700	 10.794	 -0.613	 15.0	 -17.0	 1.06786	 100.0	 1	 37.0	 0.0	 0.0	 0.0	 0.0	 0.0	 0.0	 0.0	 0.0	 0.0	 0.0	 0.0	 0.0;
	700	 10.794	 -0.613	 15.0	 -17.0	 1.06786	 100.0	 1	 37.0	 0.0	 0.0	 0.0	 0.0	 0.0	 0.0	 0.0	 0.0	 0.0	 0.0	 0.0	 0.0;
	699	 9.627	 -0.427	 15.0	 -15.0	 1.06812	 100.0	 1	 37.0	 0.0	 0.0	 0.0	 0.0	 0.0	 0.0	 0.0	 0.0	 0.0	 0.0	 0.0	 0.0;
	699	 9.627	 -0.427	 15.0	 -15.0	 1.06812	 100.0	 1	 37.0	 0.0	 0.0	 0.0	 0.0	 0.0	 0.0	 0.0	 0.0	 0.0	 0.0	 0.0	 0.0;
	698	 9.627	 -0.427	 15.0	 -17.0	 1.06812	 100.0	 1	 37.0	 0.0	 0.0	 0.0	 0.0	 0.0	 0.0	 0.0	 0.0	 0.0	 0.0	 0.0	 0.0;
	698	 9.627	 -0.427	 15.0	 -17.0	 1.06812	 100.0	 1	 37.0	 0.0	 0.0	 0.0	 0.0	 0.0	 0.0	 0.0	 0.0	 0.0	 0.0	 0.0	 0.0;
	706	 0.0	 0.69	 2.0	 -2.0	 0.88889	 100.0	 0	 4.0	 0.0	 0.0	 0.0	 0.0	 0.0	 0.0	 0.0	 0.0	 0.0	 0.0	 0.0	 0.0;
	706	 0.0	 1.19	 2.5	 -2.5	 0.88889	 100.0	 0	 4.0	 0.0	 0.0	 0.0	 0.0	 0.0	 0.0	 0.0	 0.0	 0.0	 0.0	 0.0	 0.0;
	706	 0.0	 1.6	 3.0	 -3.0	 0.88889	 100.0	 0	 5.7	 0.0	 0.0	 0.0	 0.0	 0.0	 0.0	 0.0	 0.0	 0.0	 0.0	 0.0	 0.0;
	706	 0.0	 -1.31	 6.0	 -5.0	 0.88889	 100.0	 0	 8.5	 0.0	 0.0	 0.0	 0.0	 0.0	 0.0	 0.0	 0.0	 0.0	 0.0	 0.0	 0.0;
	733	 19.5	 0.0	 0.0	 0.0	 1.04118	 100.0	 1	 19.5	 0.0	 0.0	 0.0	 0.0	 0.0	 0.0	 0.0	 0.0	 0.0	 0.0	 0.0	 0.0;
	734	 39.0	 4.897	 18.0	 -18.0	 1.05917	 100.0	 1	 39.0	 0.0	 0.0	 0.0	 0.0	 0.0	 0.0	 0.0	 0.0	 0.0	 0.0	 0.0	 0.0;
	735	 0.0	 0.0	 0.0	 0.0	 1.04386	 100.0	 0	 11.5	 0.0	 0.0	 0.0	 0.0	 0.0	 0.0	 0.0	 0.0	 0.0	 0.0	 0.0	 0.0;
	735	 19.309	 0.0	 0.0	 0.0	 1.04386	 100.0	 1	 32.0	 0.0	 0.0	 0.0	 0.0	 0.0	 0.0	 0.0	 0.0	 0.0	 0.0	 0.0	 0.0;
	737	 0.0	 0.0	 0.0	 0.0	 1.07263	 100.0	 0	 12.0	 0.0	 0.0	 0.0	 0.0	 0.0	 0.0	 0.0	 0.0	 0.0	 0.0	 0.0	 0.0;
	737	 0.0	 0.0	 0.0	 0.0	 1.07263	 100.0	 0	 32.0	 0.0	 0.0	 0.0	 0.0	 0.0	 0.0	 0.0	 0.0	 0.0	 0.0	 0.0	 0.0;
	738	 0.0	 0.1	 0.1	 -0.1	 1.03917	 100.0	 0	 5.0	 0.0	 0.0	 0.0	 0.0	 0.0	 0.0	 0.0	 0.0	 0.0	 0.0	 0.0	 0.0;
	745	 0.0	 -2.25	 4.4	 -3.7	 1.0508	 100.0	 0	 6.7	 0.0	 0.0	 0.0	 0.0	 0.0	 0.0	 0.0	 0.0	 0.0	 0.0	 0.0	 0.0;
	745	 0.0	 -1.65	 5.0	 -3.0	 1.0508	 100.0	 0	 5.6	 0.0	 0.0	 0.0	 0.0	 0.0	 0.0	 0.0	 0.0	 0.0	 0.0	 0.0	 0.0;
	746	 26.6	 3.624	 15.0	 -16.55	 1.05825	 100.0	 1	 26.6	 0.0	 0.0	 0.0	 0.0	 0.0	 0.0	 0.0	 0.0	 0.0	 0.0	 0.0	 0.0;
	747	 7.0	 1.596	 2.0	 -2.0	 1.02952	 100.0	 1	 7.0	 1.0	 0.0	 0.0	 0.0	 0.0	 0.0	 0.0	 0.0	 0.0	 0.0	 0.0	 0.0;
	752	 0.0	 -2.63	 3.0	 -3.0	 0.99145	 100.0	 0	 5.0	 -5.0	 0.0	 0.0	 0.0	 0.0	 0.0	 0.0	 0.0	 0.0	 0.0	 0.0	 0.0;
	759	 0.0	 5.35	 8.0	 -8.0	 1.07542	 100.0	 0	 23.5	 0.0	 0.0	 0.0	 0.0	 0.0	 0.0	 0.0	 0.0	 0.0	 0.0	 0.0	 0.0;
	761	 0.0	 0.0	 0.0	 0.0	 1.06349	 100.0	 0	 6.0	 0.0	 0.0	 0.0	 0.0	 0.0	 0.0	 0.0	 0.0	 0.0	 0.0	 0.0	 0.0;
	762	 0.0	 0.0	 0.0	 0.0	 1.05688	 100.0	 0	 6.0	 0.0	 0.0	 0.0	 0.0	 0.0	 0.0	 0.0	 0.0	 0.0	 0.0	 0.0	 0.0;
	761	 37.5	 -2.468	 10.0	 -6.0	 1.06349	 100.0	 1	 37.5	 0.0	 0.0	 0.0	 0.0	 0.0	 0.0	 0.0	 0.0	 0.0	 0.0	 0.0	 0.0;
	762	 37.5	 -4.388	 10.0	 -6.0	 1.05688	 100.0	 1	 37.5	 0.0	 0.0	 0.0	 0.0	 0.0	 0.0	 0.0	 0.0	 0.0	 0.0	 0.0	 0.0;
	763	 0.0	 0.06	 0.06	 -0.06	 0.57514	 100.0	 0	 0.6	 0.0	 0.0	 0.0	 0.0	 0.0	 0.0	 0.0	 0.0	 0.0	 0.0	 0.0	 0.0;
	763	 0.0	 2.61	 2.61	 -2.61	 0.57514	 100.0	 0	 26.1	 0.0	 0.0	 0.0	 0.0	 0.0	 0.0	 0.0	 0.0	 0.0	 0.0	 0.0	 0.0;
	763	 0.0	 0.16	 0.16	 -0.16	 0.57514	 100.0	 0	 1.6	 0.0	 0.0	 0.0	 0.0	 0.0	 0.0	 0.0	 0.0	 0.0	 0.0	 0.0	 0.0;
	763	 0.0	 0.11	 0.11	 -0.11	 0.57514	 100.0	 0	 1.1	 0.0	 0.0	 0.0	 0.0	 0.0	 0.0	 0.0	 0.0	 0.0	 0.0	 0.0	 0.0;
	767	 0.0	 0.0	 0.0	 0.0	 1.04131	 100.0	 0	 37.5	 0.0	 0.0	 0.0	 0.0	 0.0	 0.0	 0.0	 0.0	 0.0	 0.0	 0.0	 0.0;
	767	 0.0	 0.0	 0.0	 0.0	 1.04131	 100.0	 0	 34.0	 0.0	 0.0	 0.0	 0.0	 0.0	 0.0	 0.0	 0.0	 0.0	 0.0	 0.0	 0.0;
	787	 0.0	 -3.75	 26.0	 -26.0	 1.06018	 100.0	 0	 8.0	 0.0	 0.0	 0.0	 0.0	 0.0	 0.0	 0.0	 0.0	 0.0	 0.0	 0.0	 0.0;
	787	 0.0	 -3.75	 26.0	 -26.0	 1.06018	 100.0	 0	 15.0	 0.0	 0.0	 0.0	 0.0	 0.0	 0.0	 0.0	 0.0	 0.0	 0.0	 0.0	 0.0;
	788	 0.0	 -3.4	 26.0	 -26.0	 1.06282	 100.0	 0	 19.0	 0.0	 0.0	 0.0	 0.0	 0.0	 0.0	 0.0	 0.0	 0.0	 0.0	 0.0	 0.0;
	802	 18.951	 -0.308	 15.0	 -17.0	 1.06806	 100.0	 1	 31.0	 0.0	 0.0	 0.0	 0.0	 0.0	 0.0	 0.0	 0.0	 0.0	 0.0	 0.0	 0.0;
	802	 18.951	 -0.308	 15.0	 -17.0	 1.06806	 100.0	 1	 31.0	 0.0	 0.0	 0.0	 0.0	 0.0	 0.0	 0.0	 0.0	 0.0	 0.0	 0.0	 0.0;
	803	 22.185	 0.314	 15.0	 -17.0	 1.06877	 100.0	 1	 31.0	 0.0	 0.0	 0.0	 0.0	 0.0	 0.0	 0.0	 0.0	 0.0	 0.0	 0.0	 0.0;
	803	 22.185	 0.314	 15.0	 -17.0	 1.06877	 100.0	 1	 31.0	 0.0	 0.0	 0.0	 0.0	 0.0	 0.0	 0.0	 0.0	 0.0	 0.0	 0.0	 0.0;
	804	 22.185	 0.314	 15.0	 -17.0	 1.06877	 100.0	 1	 31.0	 0.0	 0.0	 0.0	 0.0	 0.0	 0.0	 0.0	 0.0	 0.0	 0.0	 0.0	 0.0;
	804	 22.185	 0.314	 15.0	 -17.0	 1.06877	 100.0	 1	 31.0	 0.0	 0.0	 0.0	 0.0	 0.0	 0.0	 0.0	 0.0	 0.0	 0.0	 0.0	 0.0;
	808	 0.0	 0.0	 0.0	 0.0	 1.04491	 100.0	 0	 40.8	 0.0	 0.0	 0.0	 0.0	 0.0	 0.0	 0.0	 0.0	 0.0	 0.0	 0.0	 0.0;
	816	 32.0	 5.994	 6.0	 -9.0	 1.05019	 100.0	 1	 32.0	 1.0	 0.0	 0.0	 0.0	 0.0	 0.0	 0.0	 0.0	 0.0	 0.0	 0.0	 0.0;
	816	 0.0	 0.0	 6.0	 -9.0	 1.05019	 100.0	 0	 32.0	 1.0	 0.0	 0.0	 0.0	 0.0	 0.0	 0.0	 0.0	 0.0	 0.0	 0.0	 0.0;
	817	 22.512	 1.95	 6.0	 -9.0	 1.05233	 100.0	 1	 32.0	 1.0	 0.0	 0.0	 0.0	 0.0	 0.0	 0.0	 0.0	 0.0	 0.0	 0.0	 0.0;
	817	 22.512	 1.95	 6.0	 -9.0	 1.05233	 100.0	 1	 32.0	 1.0	 0.0	 0.0	 0.0	 0.0	 0.0	 0.0	 0.0	 0.0	 0.0	 0.0	 0.0;
	817	 22.512	 1.95	 6.0	 -9.0	 1.05233	 100.0	 1	 32.0	 1.0	 0.0	 0.0	 0.0	 0.0	 0.0	 0.0	 0.0	 0.0	 0.0	 0.0	 0.0;
	817	 22.512	 1.95	 6.0	 -9.0	 1.05233	 100.0	 1	 32.0	 1.0	 0.0	 0.0	 0.0	 0.0	 0.0	 0.0	 0.0	 0.0	 0.0	 0.0	 0.0;
	827	 0.0	 0.38	 3.0	 -3.0	 1.04359	 100.0	 0	 13.0	 0.0	 0.0	 0.0	 0.0	 0.0	 0.0	 0.0	 0.0	 0.0	 0.0	 0.0	 0.0;
	827	 0.0	 3.0	 3.0	 -3.0	 1.04359	 100.0	 0	 7.0	 0.0	 0.0	 0.0	 0.0	 0.0	 0.0	 0.0	 0.0	 0.0	 0.0	 0.0	 0.0;
	830	 0.0	 0.0	 0.0	 0.0	 1.08178	 100.0	 0	 2.4	 0.0	 0.0	 0.0	 0.0	 0.0	 0.0	 0.0	 0.0	 0.0	 0.0	 0.0	 0.0;
	831	 0.0	 1.43	 10.0	 -10.0	 1.07054	 100.0	 0	 27.0	 0.0	 0.0	 0.0	 0.0	 0.0	 0.0	 0.0	 0.0	 0.0	 0.0	 0.0	 0.0;
	832	 0.0	 -2.73	 10.0	 -10.0	 0.95442	 100.0	 0	 20.0	 0.0	 0.0	 0.0	 0.0	 0.0	 0.0	 0.0	 0.0	 0.0	 0.0	 0.0	 0.0;
	834	 0.0	 -0.51	 3.14	 -3.43	 1.0568	 100.0	 0	 9.8	 0.0	 0.0	 0.0	 0.0	 0.0	 0.0	 0.0	 0.0	 0.0	 0.0	 0.0	 0.0;
	834	 0.0	 0.0	 1.0	 0.0	 1.0568	 100.0	 0	 5.0	 0.0	 0.0	 0.0	 0.0	 0.0	 0.0	 0.0	 0.0	 0.0	 0.0	 0.0	 0.0;
...
];

%% generator cost data
%	2	startup	shutdown	n	c(n-1)	...	c0
mpc.gencost = [
	2	 0.0	 0.0	 3	   0.000000	   2.000000	   0.000000;
	2	 0.0	 0.0	 3	   0.000000	   2.000000	   0.000000;
	2	 0.0	 0.0	 3	   0.000000	   2.000000	   0.000000;
	2	 0.0	 0.0	 3	   0.000000	   2.000000	   0.000000;
	2	 0.0	 0.0	 3	   0.000000	   2.000000	   0.000000;
	2	 0.0	 0.0	 3	   0.000000	   2.000000	   0.000000;
	2	 0.0	 0.0	 3	   0.000000	   2.000000	   0.000000;
	2	 0.0	 0.0	 3	   0.000000	   2.000000	   0.000000;
	2	 0.0	 0.0	 3	   0.000000	   2.000000	   0.000000;
	2	 0.0	 0.0	 3	   0.000000	   2.000000	   0.000000;
	2	 0.0	 0.0	 3	   0.000000	   2.000000	   0.000000;
	2	 0.0	 0.0	 3	   0.000000	   2.000000	   0.000000;
	2	 0.0	 0.0	 3	   0.000000	   2.000000	   0.000000;
	2	 0.0	 0.0	 3	   0.000000	   2.000000	   0.000000;
	2	 0.0	 0.0	 3	   0.000000	   2.000000	   0.000000;
	2	 0.0	 0.0	 3	   0.000000	   2.000000	   0.000000;
	2	 0.0	 0.0	 3	   0.000000	   2.000000	   0.000000;
	2	 0.0	 0.0	 3	   0.000000	   2.000000	   0.000000;
	2	 0.0	 0.0	 3	   0.000000	   2.000000	   0.000000;
	2	 0.0	 0.0	 3	   0.000000	   2.000000	   0.000000;
	2	 0.0	 0.0	 3	   0.000000	   1.000000	   0.000000;
	2	 0.0	 0.0	 3	   0.000000	   2.000000	   0.000000;
	2	 0.0	 0.0	 3	   0.000000	   2.000000	   0.000000;
	2	 0.0	 0.0	 3	   0.000000	   2.000000	   0.000000;
	2	 0.0	 0.0	 3	   0.000000	   1.000000	   0.000000;
	2	 0.0	 0.0	 3	   0.000000	   2.000000	   0.000000;
	2	 0.0	 0.0	 3	   0.000000	   2.000000	   0.000000;
	2	 0.0	 0.0	 3	   0.000000	   1.000000	   0.000000;
	2	 0.0	 0.0	 3	   0.000000	   2.000000	   0.000000;
	2	 0.0	 0.0	 3	   0.000000	   2.000000	   0.000000;
	2	 0.0	 0.0	 3	   0.000000	   2.000000	   0.000000;
	2	 0.0	 0.0	 3	   0.000000	   2.000000	   0.000000;
	2	 0.0	 0.0	 3	   0.000000	   2.000000	   0.000000;
	2	 0.0	 0.0	 3	   0.000000	   2.000000	   0.000000;
	2	 0.0	 0.0	 3	   0.000000	   2.000000	   0.000000;
	2	 0.0	 0.0	 3	   0.000000	   2.000000	   0.000000;
	2	 0.0	 0.0	 3	   0.000000	   2.000000	   0.000000;
	2	 0.0	 0.0	 3	   0.000000	   2.000000	   0.000000;
	2	 0.0	 0.0	 3	   0.000000	   2.000000	   0.000000;
	2	 0.0	 0.0	 3	   0.000000	   2.000000	   0.000000;
	2	 0.0	 0.0	 3	   0.000000	   2.000000	   0.000000;
	2	 0.0	 0.0	 3	   0.000000	   2.000000	   0.000000;
	2	 0.0	 0.0	 3	   0.000000	   2.000000	   0.000000;
	2	 0.0	 0.0	 3	   0.000000	   2.000000	   0.000000;
	2	 0.0	 0.0	 3	   0.000000	   2.000000	   0.000000;
	2	 0.0	 0.0	 3	   0.000000	   2.000000	   0.000000;
	2	 0.0	 0.0	 3	   0.000000	   2.000000	   0.000000;
	2	 0.0	 0.0	 3	   0.000000	   2.000000	   0.000000;
	2	 0.0	 0.0	 3	   0.000000	   2.000000	   0.000000;
	2	 0.0	 0.0	 3	   0.000000	   2.000000	   0.000000;
	2	 0.0	 0.0	 3	   0.000000	   2.000000	   0.000000;
	2	 0.0	 0.0	 3	   0.000000	   2.000000	   0.000000;
	2	 0.0	 0.0	 3	   0.000000	   2.000000	   0.000000;
	2	 0.0	 0.0	 3	   0.000000	   2.000000	   0.000000;
	2	 0.0	 0.0	 3	   0.000000	   2.000000	   0.000000;
	2	 0.0	 0.0	 3	   0.000000	   2.000000	   0.000000;
	2	 0.0	 0.0	 3	   0.000000	   2.000000	   0.000000;
	2	 0.0	 0.0	 3	   0.000000	   2.000000	   0.000000;
	2	 0.0	 0.0	 3	   0.000000	   2.000000	   0.000000;
	2	 0.0	 0.0	 3	   0.000000	   2.000000	   0.000000;
	2	 0.0	 0.0	 3	   0.000000	   2.000000	   0.000000;
	2	 0.0	 0.0	 3	   0.000000	   2.000000	   0.000000;
	2	 0.0	 0.0	 3	   0.000000	   2.000000	   0.000000;
	2	 0.0	 0.0	 3	   0.000000	   2.000000	   0.000000;
	2	 0.0	 0.0	 3	   0.000000	   2.000000	   0.000000;
	2	 0.0	 0.0	 3	   0.000000	   1.000000	   0.000000;
	2	 0.0	 0.0	 3	   0.000000	   1.000000	   0.000000;
	2	 0.0	 0.0	 3	   0.000000	   2.000000	   0.000000;
	2	 0.0	 0.0	 3	   0.000000	   2.000000	   0.000000;
	2	 0.0	 0.0	 3	   0.000000	   2.000000	   0.000000;
	2	 0.0	 0.0	 3	   0.000000	   2.000000	   0.000000;
	2	 0.0	 0.0	 3	   0.000000	   2.000000	   0.000000;
	2	 0.0	 0.0	 3	   0.000000	   2.000000	   0.000000;
	2	 0.0	 0.0	 3	   0.000000	   2.000000	   0.000000;
	2	 0.0	 0.0	 3	   0.000000	   2.000000	   0.000000;
	2	 0.0	 0.0	 3	   0.000000	   2.000000	   0.000000;
	2	 0.0	 0.0	 3	   0.000000	   2.000000	   0.000000;
	2	 0.0	 0.0	 3	   0.000000	   1.000000	   0.000000;
	2	 0.0	 0.0	 3	   0.000000	   2.000000	   0.000000;
	2	 0.0	 0.0	 3	   0.000000	   2.000000	   0.000000;
	2	 0.0	 0.0	 3	   0.000000	   2.000000	   0.000000;
	2	 0.0	 0.0	 3	   0.000000	   2.000000	   0.000000;
	2	 0.0	 0.0	 3	   0.000000	   1.000000	   0.000000;
	2	 0.0	 0.0	 3	   0.000000	   2.000000	   0.000000;
	2	 0.0	 0.0	 3	   0.000000	   2.000000	   0.000000;
	2	 0.0	 0.0	 3	   0.000000	   2.000000	   0.000000;
	2	 0.0	 0.0	 3	   0.000000	   2.000000	   0.000000;
	2	 0.0	 0.0	 3	   0.000000	   2.000000	   0.000000;
	2	 0.0	 0.0	 3	   0.000000	   2.000000	   0.000000;
	2	 0.0	 0.0	 3	   0.000000	   2.000000	   0.000000;
	2	 0.0	 0.0	 3	   0.000000	   2.000000	   0.000000;
	2	 0.0	 0.0	 3	   0.000000	   1.000000	   0.000000;
	2	 0.0	 0.0	 3	   0.000000	   1.000000	   0.000000;
	2	 0.0	 0.0	 3	   0.000000	   1.000000	   0.000000;
	2	 0.0	 0.0	 3	   0.000000	   2.000000	   0.000000;
	2	 0.0	 0.0	 3	   0.000000	   2.000000	   0.000000;
	2	 0.0	 0.0	 3	   0.000000	   2.000000	   0.000000;
	2	 0.0	 0.0	 3	   0.000000	   2.000000	   0.000000;
	2	 0.0	 0.0	 3	   0.000000	   2.000000	   0.000000;
	2	 0.0	 0.0	 3	   0.000000	   2.000000	   0.000000;
	2	 0.0	 0.0	 3	   0.000000	   2.000000	   0.000000;
	2	 0.0	 0.0	 3	   0.000000	   2.000000	   0.000000;
	2	 0.0	 0.0	 3	   0.000000	   2.000000	   0.000000;
	2	 0.0	 0.0	 3	   0.000000	   2.000000	   0.000000;
	2	 0.0	 0.0	 3	   0.000000	   2.000000	   0.000000;
	2	 0.0	 0.0	 3	   0.000000	   2.000000	   0.000000;
	2	 0.0	 0.0	 3	   0.000000	   2.000000	   0.000000;
	2	 0.0	 0.0	 3	   0.000000	   1.000000	   0.000000;
	2	 0.0	 0.0	 3	   0.000000	   2.000000	   0.000000;
	2	 0.0	 0.0	 3	   0.000000	   2.000000	   0.000000;
	2	 0.0	 0.0	 3	   0.000000	   2.000000	   0.000000;
	2	 0.0	 0.0	 3	   0.000000	   1.000000	   0.000000;
	2	 0.0	 0.0	 3	   0.000000	   2.000000	   0.000000;
	2	 0.0	 0.0	 3	   0.000000	   1.000000	   0.000000;
	2	 0.0	 0.0	 3	   0.000000	   2.000000	   0.000000;
	2	 0.0	 0.0	 3	   0.000000	   2.000000	   0.000000;
	2	 0.0	 0.0	 3	   0.000000	   2.000000	   0.000000;
	2	 0.0	 0.0	 3	   0.000000	   2.000000	   0.000000;
	2	 0.0	 0.0	 3	   0.000000	   2.000000	   0.000000;
	2	 0.0	 0.0	 3	   0.000000	   1.000000	   0.000000;
	2	 0.0	 0.0	 3	   0.000000	   2.000000	   0.000000;
	2	 0.0	 0.0	 3	   0.000000	   2.000000	   0.000000;
	2	 0.0	 0.0	 3	   0.000000	   2.000000	   0.000000;
	2	 0.0	 0.0	 3	   0.000000	   2.000000	   0.000000;
	2	 0.0	 0.0	 3	   0.000000	   2.000000	   0.000000;
	2	 0.0	 0.0	 3	   0.000000	   2.000000	   0.000000;
	2	 0.0	 0.0	 3	   0.000000	   2.000000	   0.000000;
	2	 0.0	 0.0	 3	   0.000000	   2.000000	   0.000000;
	2	 0.0	 0.0	 3	   0.000000	   2.000000	   0.000000;
	2	 0.0	 0.0	 3	   0.000000	   2.000000	   0.000000;
	2	 0.0	 0.0	 3	   0.000000	   2.000000	   0.000000;
	2	 0.0	 0.0	 3	   0.000000	   2.000000	   0.000000;
	2	 0.0	 0.0	 3	   0.000000	   2.000000	   0.000000;
	2	 0.0	 0.0	 3	   0.000000	   2.000000	   0.000000;
	2	 0.0	 0.0	 3	   0.000000	   1.000000	   0.000000;
	2	 0.0	 0.0	 3	   0.000000	   2.000000	   0.000000;
	2	 0.0	 0.0	 3	   0.000000	   2.000000	   0.000000;
	2	 0.0	 0.0	 3	   0.000000	   2.000000	   0.000000;
	2	 0.0	 0.0	 3	   0.000000	   2.000000	   0.000000;
	2	 0.0	 0.0	 3	   0.000000	   2.000000	   0.000000;
	2	 0.0	 0.0	 3	   0.000000	   2.000000	   0.000000;
	2	 0.0	 0.0	 3	   0.000000	   1.000000	   0.000000;
	2	 0.0	 0.0	 3	   0.000000	   2.000000	   0.000000;
	2	 0.0	 0.0	 3	   0.000000	   2.000000	   0.000000;
	2	 0.0	 0.0	 3	   0.000000	   1.000000	   0.000000;
	2	 0.0	 0.0	 3	   0.000000	   1.000000	   0.000000;
	2	 0.0	 0.0	 3	   0.000000	   1.000000	   0.000000;
	2	 0.0	 0.0	 3	   0.000000	   1.000000	   0.000000;
	2	 0.0	 0.0	 3	   0.000000	   1.000000	   0.000000;
	2	 0.0	 0.0	 3	   0.000000	   1.000000	   0.000000;
	2	 0.0	 0.0	 3	   0.000000	   2.000000	   0.000000;
	2	 0.0	 0.0	 3	   0.000000	   2.000000	   0.000000;
	2	 0.0	 0.0	 3	   0.000000	   2.000000	   0.000000;
	2	 0.0	 0.0	 3	   0.000000	   2.000000	   0.000000;
	2	 0.0	 0.0	 3	   0.000000	   1.000000	   0.000000;
	2	 0.0	 0.0	 3	   0.000000	   1.000000	   0.000000;
	2	 0.0	 0.0	 3	   0.000000	   2.000000	   0.000000;
	2	 0.0	 0.0	 3	   0.000000	   1.000000	   0.000000;
	2	 0.0	 0.0	 3	   0.000000	   2.000000	   0.000000;
	2	 0.0	 0.0	 3	   0.000000	   2.000000	   0.000000;
	2	 0.0	 0.0	 3	   0.000000	   2.000000	   0.000000;
	2	 0.0	 0.0	 3	   0.000000	   2.000000	   0.000000;
	2	 0.0	 0.0	 3	   0.000000	   2.000000	   0.000000;
	2	 0.0	 0.0	 3	   0.000000	   1.000000	   0.000000;
	2	 0.0	 0.0	 3	   0.000000	   1.000000	   0.000000;
	2	 0.0	 0.0	 3	   0.000000	   2.000000	   0.000000;
	2	 0.0	 0.0	 3	   0.000000	   2.000000	   0.000000;
	2	 0.0	 0.0	 3	   0.000000	   2.000000	   0.000000;
	2	 0.0	 0.0	 3	   0.000000	   2.000000	   0.000000;
	2	 0.0	 0.0	 3	   0.000000	   1.000000	   0.000000;
	2	 0.0	 0.0	 3	   0.000000	   1.000000	   0.000000;
	2	 0.0	 0.0	 3	   0.000000	   2.000000	   0.000000;
	2	 0.0	 0.0	 3	   0.000000	   2.000000	   0.000000;
	2	 0.0	 0.0	 3	   0.000000	   2.000000	   0.000000;
	2	 0.0	 0.0	 3	   0.000000	   2.000000	   0.000000;
	2	 0.0	 0.0	 3	   0.000000	   2.000000	   0.000000;
	2	 0.0	 0.0	 3	   0.000000	   2.000000	   0.000000;
	2	 0.0	 0.0	 3	   0.000000	   2.000000	   0.000000;
	2	 0.0	 0.0	 3	   0.000000	   2.000000	   0.000000;
	2	 0.0	 0.0	 3	   0.000000	   2.000000	   0.000000;
	2	 0.0	 0.0	 3	   0.000000	   1.000000	   0.000000;
	2	 0.0	 0.0	 3	   0.000000	   1.000000	   0.000000;
	2	 0.0	 0.0	 3	   0.000000	   1.000000	   0.000000;
	2	 0.0	 0.0	 3	   0.000000	   1.000000	   0.000000;
	2	 0.0	 0.0	 3	   0.000000	   1.000000	   0.000000;
	2	 0.0	 0.0	 3	   0.000000	   1.000000	   0.000000;
	2	 0.0	 0.0	 3	   0.000000	   2.000000	   0.000000;
	2	 0.0	 0.0	 3	   0.000000	   1.000000	   0.000000;
	2	 0.0	 0.0	 3	   0.000000	   2.000000	   0.000000;
	2	 0.0	 0.0	 3	   0.000000	   1.000000	   0.000000;
	2	 0.0	 0.0	 3	   0.000000	   1.000000	   0.000000;
	2	 0.0	 0.0	 3	   0.000000	   1.000000	   0.000000;
	2	 0.0	 0.0	 3	   0.000000	   1.000000	   0.000000;
	2	 0.0	 0.0	 3	   0.000000	   2.000000	   0.000000;
	2	 0.0	 0.0	 3	   0.000000	   2.000000	   0.000000;
	2	 0.0	 0.0	 3	   0.000000	   2.000000	   0.000000;
	2	 0.0	 0.0	 3	   0.000000	   2.000000	   0.000000;
	2	 0.0	 0.0	 3	   0.000000	   2.000000	   0.000000;
	2	 0.0	 0.0	 3	   0.000000	   2.000000	   0.000000;
	2	 0.0	 0.0	 3	   0.000000	   2.000000	   0.000000;
...
];

%% branch data
%	fbus	tbus	r	x	b	rateA	rateB	rateC	ratio	angle	status	angmin	angmax
mpc.branch = [
	4667	 1	 0.005726	 0.010482	 0.0	 2186	 2186	 2186	 1.0	 0.0	 1	 -30.0	 30.0;
	5273	 1	 0.01284	 0.025679	 0.0	 910	 910	 910	 1.0	 0.0	 1	 -30.0	 30.0;
	1689	 2	 0.005799	 0.010615	 0.0075	 2441	 2441	 2441	 1.0	 0.0	 1	 -30.0	 30.0;
	1680	 3	 0.134039	 0.309398	 0.0035	 91	 91	 91	 1.0	 0.0	 1	 -30.0	 30.0;
	2311	 3	 0.049131	 0.133283	 0.0015	 215	 215	 215	 1.0	 0.0	 1	 -30.0	 30.0;
	696	 4	 0.025926	 0.109136	 0.0002	 281	 281	 281	 1.0	 0.0	 1	 -30.0	 30.0;
	3961	 4	 0.05	 0.126914	 0.0006	 226	 226	 226	 1.0	 0.0	 1	 -30.0	 30.0;
	5073	 4	 0.02321	 0.097407	 0.0016	 315	 315	 315	 1.0	 0.0	 1	 -30.0	 30.0;
	4437	 5	 0.040564	 0.113631	 0.0013	 245	 245	 245	 1.0	 0.0	 1	 -30.0	 30.0;
	2789	 6	 0.006047	 0.020912	 0.0222	 1398	 1398	 1398	 1.0	 0.0	 1	 -30.0	 30.0;
	2790	 7	 0.012472	 0.032099	 0.0061	 884	 884	 884	 1.0	 0.0	 1	 -30.0	 30.0;
	2477	 8	 0.002607	 0.017462	 0.0324	 540.0	 540.0	 540.0	 1.0	 0.0	 1	 -30.0	 30.0;
	473	 9	 0.053893	 0.14258	 0.0017	 194	 194	 194	 1.0	 0.0	 1	 -30.0	 30.0;
	11	 10	 0.000247	 0.001235	 0.0005	 24078	 24078	 24078	 1.0	 0.0	 1	 -30.0	 30.0;
	11	 10	 0.000247	 0.001235	 0.0002	 24078	 24078	 24078	 1.0	 0.0	 1	 -30.0	 30.0;
	30	 11	 0.039753	 0.100988	 0.0047	 284	 284	 284	 1.0	 0.0	 1	 -30.0	 30.0;
	2945	 11	 0.037654	 0.096173	 0.001	 294	 294	 294	 1.0	 0.0	 1	 -30.0	 30.0;
	2189	 12	 0.014613	 0.060721	 0.0008	 487	 487	 487	 1.0	 0.0	 1	 -30.0	 30.0;
	4039	 12	 0.034064	 0.121139	 0.0015	 242	 242	 242	 1.0	 0.0	 1	 -30.0	 30.0;
	4041	 12	 0.000242	 0.000442	 0.0004	 60355	 60355	 60355	 1.0	 0.0	 1	 -30.0	 30.0;
	115	 13	 2.1e-05	 0.000125	 0.1386	 737.0	 737.0	 737.0	 1.0	 0.0	 1	 -30.0	 30.0;
	2345	 13	 0.000145	 0.001877	 0.0635	 2487.0	 2487.0	 2487.0	 1.0	 0.0	 1	 -30.0	 30.0;
	4597	 13	 0.000319	 0.003234	 0.0838	 1841.0	 1841.0	 1841.0	 1.0	 0.0	 1	 -30.0	 30.0;
	116	 13	 2.1e-05	 0.000125	 0.1386	 737.0	 737.0	 737.0	 1.0	 0.0	 1	 -30.0	 30.0;
	1229	 14	 0.04	 0.134198	 0.0274	 217	 217	 217	 1.0	 0.0	 1	 -30.0	 30.0;
	2887	 14	 0.012222	 0.052346	 0.0026	 565	 565	 565	 1.0	 0.0	 1	 -30.0	 30.0;
	4615	 14	 0.007284	 0.045432	 0.0024	 660	 660	 660	 1.0	 0.0	 1	 -30.0	 30.0;
	4976	 14	 0.059963	 0.154222	 0.0236	 184	 184	 184	 1.0	 0.0	 1	 -30.0	 30.0;
	5259	 14	 0.018025	 0.110988	 0.0073	 270	 270	 270	 1.0	 0.0	 1	 -30.0	 30.0;
	2887	 14	 0.012222	 0.052593	 0.0032	 562	 562	 562	 1.0	 0.0	 1	 -30.0	 30.0;
	4615	 14	 0.007284	 0.044938	 0.0024	 667	 667	 667	 1.0	 0.0	 1	 -30.0	 30.0;
	2921	 15	 0.037541	 0.100529	 0.0011	 284	 284	 284	 1.0	 0.0	 1	 -30.0	 30.0;
	4150	 15	 0.090199	 0.211388	 0.0023	 133	 133	 133	 1.0	 0.0	 1	 -30.0	 30.0;
	4477	 15	 0.09801	 0.267574	 0.0	 107	 107	 107	 1.0	 0.0	 1	 -30.0	 30.0;
	252	 16	 0.071806	 0.191484	 0.0019	 149	 149	 149	 1.0	 0.0	 1	 -30.0	 30.0;
	340	 16	 0.119174	 0.284958	 0.0044	 99	 99	 99	 1.0	 0.0	 1	 -30.0	 30.0;
	5865	 17	 0.022346	 0.061111	 0.0029	 457	 457	 457	 1.0	 0.0	 1	 -30.0	 30.0;
	3747	 18	 0.009383	 0.019753	 0.0	 1194	 1194	 1194	 1.0	 0.0	 1	 -30.0	 30.0;
	5121	 19	 0.000252	 0.000504	 0.0	 52398	 52398	 52398	 1.0	 0.0	 1	 -30.0	 30.0;
	3747	 20	 0.001975	 0.004444	 0.0	 5369	 5369	 5369	 1.0	 0.0	 1	 -30.0	 30.0;
	1359	 21	 0.036296	 0.099012	 0.0045	 282	 282	 282	 1.0	 0.0	 1	 -30.0	 30.0;
	1605	 21	 0.032716	 0.089136	 0.0057	 313	 313	 313	 1.0	 0.0	 1	 -30.0	 30.0;
	1849	 22	 0.138574	 0.351474	 0.0058	 81	 81	 81	 1.0	 0.0	 1	 -30.0	 30.0;
	5050	 22	 0.094407	 0.210456	 0.0044	 132	 132	 132	 1.0	 0.0	 1	 -30.0	 30.0;
	1161	 23	 0.047115	 0.117158	 0.001	 234	 234	 234	 1.0	 0.0	 1	 -30.0	 30.0;
	2713	 23	 0.039557	 0.120937	 0.0132	 233	 233	 233	 1.0	 0.0	 1	 -30.0	 30.0;
	3443	 23	 0.022676	 0.062484	 0.0007	 445	 445	 445	 1.0	 0.0	 1	 -30.0	 30.0;
	145	 24	 0.064568	 0.16716	 0.0113	 180	 180	 180	 1.0	 0.0	 1	 -30.0	 30.0;
	1287	 24	 0.048605	 0.128481	 0.0062	 235	 235	 235	 1.0	 0.0	 1	 -30.0	 30.0;
	493	 25	 0.004815	 0.02963	 0.0016	 1049	 1049	 1049	 1.0	 0.0	 1	 -30.0	 30.0;
	2101	 25	 0.007309	 0.04463	 0.0073	 710	 710	 710	 1.0	 0.0	 1	 -30.0	 30.0;
	613	 26	 0.034321	 0.145802	 0.0073	 199	 199	 199	 1.0	 0.0	 1	 -30.0	 30.0;
	1872	 26	 0.004815	 0.009753	 0.0005	 2731	 2731	 2731	 1.0	 0.0	 1	 -30.0	 30.0;
	2613	 26	 0.049012	 0.133704	 0.0063	 209	 209	 209	 1.0	 0.0	 1	 -30.0	 30.0;
	2938	 26	 0.04642	 0.126543	 0.0058	 221	 221	 221	 1.0	 0.0	 1	 -30.0	 30.0;
	3357	 26	 0.046296	 0.125926	 0.006	 222	 222	 222	 1.0	 0.0	 1	 -30.0	 30.0;
	4652	 26	 0.053704	 0.136753	 0.0065	 203	 203	 203	 1.0	 0.0	 1	 -30.0	 30.0;
	2938	 26	 0.03358	 0.120988	 0.0062	 237	 237	 237	 1.0	 0.0	 1	 -30.0	 30.0;
	536	 27	 0.006163	 0.041067	 0.0759	 446.0	 446.0	 446.0	 1.0	 0.0	 1	 -30.0	 30.0;
	2358	 27	 0.000652	 0.004369	 0.0081	 558.0	 558.0	 558.0	 1.0	 0.0	 1	 -30.0	 30.0;
	2694	 28	 0.050945	 0.131922	 0.0015	 216	 216	 216	 1.0	 0.0	 1	 -30.0	 30.0;
	3913	 28	 0.058781	 0.149005	 0.0017	 190	 190	 190	 1.0	 0.0	 1	 -30.0	 30.0;
	2900	 29	 0.067019	 0.137566	 0.0037	 193	 193	 193	 1.0	 0.0	 1	 -30.0	 30.0;
	3339	 29	 0.032754	 0.088939	 0.0039	 312	 312	 312	 1.0	 0.0	 1	 -30.0	 30.0;
	3339	 29	 0.030184	 0.080096	 0.0053	 345	 345	 345	 1.0	 0.0	 1	 -30.0	 30.0;
	145	 30	 0.066049	 0.187778	 0.0099	 161	 161	 161	 1.0	 0.0	 1	 -30.0	 30.0;
	1559	 30	 0.065062	 0.133704	 0.0062	 212	 212	 212	 1.0	 0.0	 1	 -30.0	 30.0;
	4861	 30	 0.041728	 0.106049	 0.005	 281	 281	 281	 1.0	 0.0	 1	 -30.0	 30.0;
	151	 31	 0.009574	 0.03875	 0.0114	 740	 740	 740	 1.0	 0.0	 1	 -30.0	 30.0;
	3180	 31	 0.000171	 0.000313	 0.0002	 82782	 82782	 82782	 1.0	 0.0	 1	 -30.0	 30.0;
	3712	 31	 0.034266	 0.09423	 0.001	 295	 295	 295	 1.0	 0.0	 1	 -30.0	 30.0;
	4763	 31	 0.006803	 0.028219	 0.0	 1018	 1018	 1018	 1.0	 0.0	 1	 -30.0	 30.0;
	151	 31	 0.008566	 0.037541	 0.0121	 767	 767	 767	 1.0	 0.0	 1	 -30.0	 30.0;
	3749	 32	 0.009733	 0.034089	 0.0185	 902	 902	 902	 1.0	 0.0	 1	 -30.0	 30.0;
	369	 34	 0.000277	 0.002015	 0.003	 15218	 15218	 15218	 1.0	 0.0	 1	 -30.0	 30.0;
	1020	 33	 0.00881	 0.033995	 0.0607	 882	 882	 882	 1.0	 0.0	 1	 -30.0	 30.0;
	1162	 33	 0.004642	 0.019832	 0.0354	 1520	 1520	 1520	 1.0	 0.0	 1	 -30.0	 30.0;
	2591	 34	 0.008861	 0.03506	 0.0623	 856	 856	 856	 1.0	 0.0	 1	 -30.0	 30.0;
	2714	 34	 0.006993	 0.032869	 0.0557	 922	 922	 922	 1.0	 0.0	 1	 -30.0	 30.0;
	4768	 33	 0.002173	 0.008731	 0.0152	 3441	 3441	 3441	 1.0	 0.0	 1	 -30.0	 30.0;
	4878	 34	 0.00077	 0.003121	 0.0051	 9629	 9629	 9629	 1.0	 0.0	 1	 -30.0	 30.0;
	5700	 33	 0.004109	 0.016138	 0.0284	 1859	 1859	 1859	 1.0	 0.0	 1	 -30.0	 30.0;
	371	 35	 8.3e-05	 0.000907	 0.0202	 1034.0	 1034.0	 1034.0	 1.0	 0.0	 1	 -30.0	 30.0;
	1114	 35	 0.000552	 0.006726	 0.0939	 1786.0	 1786.0	 1786.0	 1.0	 0.0	 1	 -30.0	 30.0;
...